/*---------------------------------------------------------------------------*\
  =========                 |
  \\      /  F ield         | OpenFOAM: The Open Source CFD Toolbox
   \\    /   O peration     | Website:  https://openfoam.org
    \\  /    A nd           | Version:  6
     \\/     M anipulation  |
\*---------------------------------------------------------------------------*/
Build  : 6-fa1285188035
Exec   : reactingTwoPhaseEulerFoam
Date   : May 27 2021
Time   : 20:43:27
Host   : "edwardkgn-VirtualBox"
PID    : 9029
I/O    : uncollated
Case   : /home/edwardkgn/OpenFOAM/edwardkgn-6/run/0_MOD_bubbleColumnPolydisperse_lam_smallTimeStep
nProcs : 1
sigFpe : Enabling floating point exception trapping (FOAM_SIGFPE).
fileModificationChecking : Monitoring run-time modified files using timeStampMaster (fileModificationSkew 10)
allowSystemOperations : Allowing user-supplied system call operations

// * * * * * * * * * * * * * * * * * * * * * * * * * * * * * * * * * * * * * //
Create time

Create mesh for time = 0


PIMPLE: No convergence criteria found


PIMPLE: No corrector convergence criteria found
        Calclations will do 3 corrections


Reading g

Reading hRef
Creating phaseSystem

Selecting twoPhaseSystem populationBalanceTwoPhaseSystem
Selecting phaseModel for air: purePhaseModel
Selecting diameterModel for phase air: velocityGroup
Selecting thermodynamics package 
{
    type            heRhoThermo;
    mixture         pureMixture;
    transport       const;
    thermo          hConst;
    equationOfState perfectGas;
    specie          specie;
    energy          sensibleInternalEnergy;
}

Calculating face flux field phi.air
Selecting turbulence model type laminar
Selecting laminar stress model Stokes
Selecting phaseModel for water: purePhaseModel
Selecting diameterModel for phase water: constant
Selecting thermodynamics package 
{
    type            heRhoThermo;
    mixture         pureMixture;
    transport       const;
    thermo          hConst;
    equationOfState perfectFluid;
    specie          specie;
    energy          sensibleInternalEnergy;
}

Calculating face flux field phi.water
Selecting turbulence model type laminar
Selecting laminar stress model Stokes
No MRF models present

Selecting default blending method: linear
Selecting drag blending method: linear
Selecting surfaceTensionModel for (air and water): constant
Selecting aspectRatioModel for (air in water): constant
Selecting aspectRatioModel for (water in air): constant
Selecting dragModel for (air and water): segregated
Selecting swarmCorrection for (air and water): none
Selecting dragModel for (air in water): SchillerNaumann
Selecting swarmCorrection for (air in water): none
Selecting dragModel for (water in air): SchillerNaumann
Selecting swarmCorrection for (water in air): none
Selecting virtualMassModel for (air in water): constantCoefficient
Selecting virtualMassModel for (water in air): constantCoefficient
Selecting heatTransferModel for (air in water): RanzMarshall
Selecting heatTransferModel for (water in air): RanzMarshall
Calculating field g.h

Reading field p_rgh

Courant Number mean: 2.225e-05 max: 7.5e-05
fieldAverage fieldAverage1:
    Starting averaging at time 0

sizeDistribution numberDensity.diameter.bubbles:cellZone(zone):
    total cells  = 198
    total volume = 0.001584




Starting time loop

Courant Number mean: 2.225e-05 max: 7.5e-05
Max Ur Courant Number = 7.5e-05
deltaT = 1.2e-05
Time = 1.2e-05

PIMPLE: Iteration 1
MULES: Solving for alpha.air
MULES: Solving for alpha.air
alpha.air volume fraction = 0.293333  Min(alpha1) = 0  Max(alpha1) = 1
Constructing momentum equations
smoothSolver:  Solving for e.air, Initial residual = 1, Final residual = 2.69468e-09, No Iterations 1
smoothSolver:  Solving for e.water, Initial residual = 1, Final residual = 4.45801e-08, No Iterations 2
GAMG:  Solving for p_rgh, Initial residual = 0.000300344, Final residual = 1.47669e-09, No Iterations 2
PIMPLE: Iteration 2
MULES: Solving for alpha.air
MULES: Solving for alpha.air
alpha.air volume fraction = 0.293334  Min(alpha1) = 0  Max(alpha1) = 1
Constructing momentum equations
smoothSolver:  Solving for e.air, Initial residual = 4.29857e-05, Final residual = 2.69258e-13, No Iterations 1
smoothSolver:  Solving for e.water, Initial residual = 7.46771e-09, Final residual = 8.6611e-16, No Iterations 1
GAMG:  Solving for p_rgh, Initial residual = 0.00017176, Final residual = 3.96111e-10, No Iterations 2
PIMPLE: Iteration 3
MULES: Solving for alpha.air
MULES: Solving for alpha.air
alpha.air volume fraction = 0.293334  Min(alpha1) = 0  Max(alpha1) = 1
populationBalance bubbles: Iteration 1
DILUPBiCGStab:  Solving for f0.air.bubbles, Initial residual = 1, Final residual = 2.85272e-16, No Iterations 1
DILUPBiCGStab:  Solving for f1.air.bubbles, Initial residual = 1, Final residual = 2.82355e-16, No Iterations 1
DILUPBiCGStab:  Solving for f2.air.bubbles, Initial residual = 1, Final residual = 2.18115e-16, No Iterations 1
DILUPBiCGStab:  Solving for f3.air.bubbles, Initial residual = 1, Final residual = 2.38432e-16, No Iterations 1
DILUPBiCGStab:  Solving for f4.air.bubbles, Initial residual = 1, Final residual = 3.38972e-16, No Iterations 1
DILUPBiCGStab:  Solving for f5.air.bubbles, Initial residual = 1, Final residual = 2.7307e-16, No Iterations 1
DILUPBiCGStab:  Solving for f6.air.bubbles, Initial residual = 1, Final residual = 2.391e-16, No Iterations 1
DILUPBiCGStab:  Solving for f7.air.bubbles, Initial residual = 1, Final residual = 2.25118e-16, No Iterations 1
DILUPBiCGStab:  Solving for f8.air.bubbles, Initial residual = 1, Final residual = 3.7182e-16, No Iterations 1
DILUPBiCGStab:  Solving for f9.air.bubbles, Initial residual = 1, Final residual = 2.25262e-16, No Iterations 1
DILUPBiCGStab:  Solving for f10.air.bubbles, Initial residual = 1, Final residual = 2.75294e-16, No Iterations 1
DILUPBiCGStab:  Solving for f11.air.bubbles, Initial residual = 1, Final residual = 2.68069e-16, No Iterations 1
DILUPBiCGStab:  Solving for f12.air.bubbles, Initial residual = 1, Final residual = 2.3836e-16, No Iterations 1
DILUPBiCGStab:  Solving for f13.air.bubbles, Initial residual = 1, Final residual = 1.10253e-15, No Iterations 1
DILUPBiCGStab:  Solving for f14.air.bubbles, Initial residual = 1, Final residual = 3.25188e-16, No Iterations 1
DILUPBiCGStab:  Solving for f15.air.bubbles, Initial residual = 1, Final residual = 2.77775e-16, No Iterations 1
DILUPBiCGStab:  Solving for f16.air.bubbles, Initial residual = 1, Final residual = 1.27143e-15, No Iterations 1
DILUPBiCGStab:  Solving for f17.air.bubbles, Initial residual = 0, Final residual = 0, No Iterations 0
DILUPBiCGStab:  Solving for f18.air.bubbles, Initial residual = 0, Final residual = 0, No Iterations 0
DILUPBiCGStab:  Solving for f19.air.bubbles, Initial residual = 0, Final residual = 0, No Iterations 0
DILUPBiCGStab:  Solving for f20.air.bubbles, Initial residual = 0, Final residual = 0, No Iterations 0
DILUPBiCGStab:  Solving for f21.air.bubbles, Initial residual = 0, Final residual = 0, No Iterations 0
air Sauter mean diameter, min, max = 0.00292772 0.00284172 0.00292892
air sizeGroups-sum volume fraction, min, max = 1.00002 1 1.00121
bubbles sizeGroup phase fraction first, last = 1.51181e-08 0
Constructing momentum equations
smoothSolver:  Solving for e.air, Initial residual = 1.32809e-06, Final residual = 2.44455e-15, No Iterations 1
smoothSolver:  Solving for e.water, Initial residual = 4.66764e-10, Final residual = 8.64836e-16, No Iterations 1
GAMG:  Solving for p_rgh, Initial residual = 1.2875e-06, Final residual = 1.031e-10, No Iterations 1
ExecutionTime = 0.22 s


    Reading/initialising field U.airMean
    Reading/initialising field U.waterMean
    Reading/initialising field alpha.airMean
    Reading/initialising field pMean
fieldAverage fieldAverage1 write:
    Calculating averages

Courant Number mean: 2.63739e-05 max: 8.98947e-05
Max Ur Courant Number = 0.00297278
deltaT = 1.44e-05
Time = 2.64e-05

PIMPLE: Iteration 1
MULES: Solving for alpha.air
MULES: Solving for alpha.air
alpha.air volume fraction = 0.293335  Min(alpha1) = 0  Max(alpha1) = 1
Constructing momentum equations
smoothSolver:  Solving for e.air, Initial residual = 7.2309e-06, Final residual = 5.40735e-13, No Iterations 1
smoothSolver:  Solving for e.water, Initial residual = 1.21235e-09, Final residual = 8.72158e-16, No Iterations 1
GAMG:  Solving for p_rgh, Initial residual = 0.000177013, Final residual = 1.9922e-09, No Iterations 2
PIMPLE: Iteration 2
MULES: Solving for alpha.air
MULES: Solving for alpha.air
alpha.air volume fraction = 0.293335  Min(alpha1) = 0  Max(alpha1) = 1
Constructing momentum equations
smoothSolver:  Solving for e.air, Initial residual = 6.36844e-06, Final residual = 3.40202e-13, No Iterations 1
smoothSolver:  Solving for e.water, Initial residual = 1.00297e-09, Final residual = 8.51882e-16, No Iterations 1
GAMG:  Solving for p_rgh, Initial residual = 3.56704e-05, Final residual = 5.5572e-10, No Iterations 2
PIMPLE: Iteration 3
MULES: Solving for alpha.air
MULES: Solving for alpha.air
alpha.air volume fraction = 0.293335  Min(alpha1) = 0  Max(alpha1) = 1
populationBalance bubbles: Iteration 1
DILUPBiCGStab:  Solving for f0.air.bubbles, Initial residual = 0.464482, Final residual = 4.21209e-15, No Iterations 1
DILUPBiCGStab:  Solving for f1.air.bubbles, Initial residual = 0.462052, Final residual = 4.05556e-15, No Iterations 1
DILUPBiCGStab:  Solving for f2.air.bubbles, Initial residual = 0.461955, Final residual = 4.15933e-15, No Iterations 1
DILUPBiCGStab:  Solving for f3.air.bubbles, Initial residual = 0.461992, Final residual = 4.08663e-15, No Iterations 1
DILUPBiCGStab:  Solving for f4.air.bubbles, Initial residual = 0.462116, Final residual = 4.09212e-15, No Iterations 1
DILUPBiCGStab:  Solving for f5.air.bubbles, Initial residual = 0.461905, Final residual = 4.14688e-15, No Iterations 1
DILUPBiCGStab:  Solving for f6.air.bubbles, Initial residual = 0.462014, Final residual = 4.16467e-15, No Iterations 1
DILUPBiCGStab:  Solving for f7.air.bubbles, Initial residual = 0.462001, Final residual = 4.18969e-15, No Iterations 1
DILUPBiCGStab:  Solving for f8.air.bubbles, Initial residual = 0.461981, Final residual = 4.18561e-15, No Iterations 1
DILUPBiCGStab:  Solving for f9.air.bubbles, Initial residual = 0.461957, Final residual = 4.08466e-15, No Iterations 1
DILUPBiCGStab:  Solving for f10.air.bubbles, Initial residual = 0.461928, Final residual = 4.09047e-15, No Iterations 1
DILUPBiCGStab:  Solving for f11.air.bubbles, Initial residual = 0.464499, Final residual = 4.15756e-15, No Iterations 1
DILUPBiCGStab:  Solving for f12.air.bubbles, Initial residual = 0.0126062, Final residual = 1.13551e-16, No Iterations 1
DILUPBiCGStab:  Solving for f13.air.bubbles, Initial residual = 0.00228886, Final residual = 1.92424e-16, No Iterations 1
DILUPBiCGStab:  Solving for f14.air.bubbles, Initial residual = 0.0205714, Final residual = 3.86348e-16, No Iterations 1
DILUPBiCGStab:  Solving for f15.air.bubbles, Initial residual = 0.0119027, Final residual = 1.3454e-16, No Iterations 1
DILUPBiCGStab:  Solving for f16.air.bubbles, Initial residual = 0.336465, Final residual = 3.00043e-14, No Iterations 1
DILUPBiCGStab:  Solving for f17.air.bubbles, Initial residual = 1, Final residual = 1.15617e-13, No Iterations 1
DILUPBiCGStab:  Solving for f18.air.bubbles, Initial residual = 0, Final residual = 0, No Iterations 0
DILUPBiCGStab:  Solving for f19.air.bubbles, Initial residual = 0, Final residual = 0, No Iterations 0
DILUPBiCGStab:  Solving for f20.air.bubbles, Initial residual = 0, Final residual = 0, No Iterations 0
DILUPBiCGStab:  Solving for f21.air.bubbles, Initial residual = 0, Final residual = 0, No Iterations 0
air Sauter mean diameter, min, max = 0.00292748 0.00282571 0.00292891
air sizeGroups-sum volume fraction, min, max = 1 1 1.00034
bubbles sizeGroup phase fraction first, last = 3.32686e-08 0
Constructing momentum equations
smoothSolver:  Solving for e.air, Initial residual = 1.11373e-06, Final residual = 2.92005e-14, No Iterations 1
smoothSolver:  Solving for e.water, Initial residual = 2.35901e-10, Final residual = 8.54811e-16, No Iterations 1
GAMG:  Solving for p_rgh, Initial residual = 1.82424e-06, Final residual = 1.14534e-09, No Iterations 1
ExecutionTime = 0.38 s


fieldAverage fieldAverage1 write:
    Calculating averages

Courant Number mean: 3.18099e-05 max: 0.00010772
Max Ur Courant Number = 0.00339852
deltaT = 1.728e-05
Time = 4.368e-05

PIMPLE: Iteration 1
MULES: Solving for alpha.air
MULES: Solving for alpha.air
alpha.air volume fraction = 0.293336  Min(alpha1) = 0  Max(alpha1) = 1
Constructing momentum equations
smoothSolver:  Solving for e.air, Initial residual = 9.63473e-06, Final residual = 5.78926e-13, No Iterations 1
smoothSolver:  Solving for e.water, Initial residual = 1.68495e-09, Final residual = 9.7361e-16, No Iterations 1
GAMG:  Solving for p_rgh, Initial residual = 0.000164517, Final residual = 9.28043e-09, No Iterations 2
PIMPLE: Iteration 2
MULES: Solving for alpha.air
MULES: Solving for alpha.air
alpha.air volume fraction = 0.293336  Min(alpha1) = 0  Max(alpha1) = 1
Constructing momentum equations
smoothSolver:  Solving for e.air, Initial residual = 4.62987e-06, Final residual = 3.92334e-13, No Iterations 1
smoothSolver:  Solving for e.water, Initial residual = 7.75987e-10, Final residual = 8.72788e-16, No Iterations 1
GAMG:  Solving for p_rgh, Initial residual = 1.20612e-05, Final residual = 4.67143e-10, No Iterations 2
PIMPLE: Iteration 3
MULES: Solving for alpha.air
MULES: Solving for alpha.air
alpha.air volume fraction = 0.293336  Min(alpha1) = 0  Max(alpha1) = 1
populationBalance bubbles: Iteration 1
DILUPBiCGStab:  Solving for f0.air.bubbles, Initial residual = 0.322652, Final residual = 1.25569e-14, No Iterations 1
DILUPBiCGStab:  Solving for f1.air.bubbles, Initial residual = 0.320437, Final residual = 1.23946e-14, No Iterations 1
DILUPBiCGStab:  Solving for f2.air.bubbles, Initial residual = 0.320389, Final residual = 1.24111e-14, No Iterations 1
DILUPBiCGStab:  Solving for f3.air.bubbles, Initial residual = 0.320333, Final residual = 1.23554e-14, No Iterations 1
DILUPBiCGStab:  Solving for f4.air.bubbles, Initial residual = 0.320462, Final residual = 1.2433e-14, No Iterations 1
DILUPBiCGStab:  Solving for f5.air.bubbles, Initial residual = 0.320292, Final residual = 1.24247e-14, No Iterations 1
DILUPBiCGStab:  Solving for f6.air.bubbles, Initial residual = 0.320352, Final residual = 1.23577e-14, No Iterations 1
DILUPBiCGStab:  Solving for f7.air.bubbles, Initial residual = 0.320331, Final residual = 1.24692e-14, No Iterations 1
DILUPBiCGStab:  Solving for f8.air.bubbles, Initial residual = 0.320305, Final residual = 1.23437e-14, No Iterations 1
DILUPBiCGStab:  Solving for f9.air.bubbles, Initial residual = 0.320276, Final residual = 1.2405e-14, No Iterations 1
DILUPBiCGStab:  Solving for f10.air.bubbles, Initial residual = 0.320756, Final residual = 1.24248e-14, No Iterations 1
DILUPBiCGStab:  Solving for f11.air.bubbles, Initial residual = 0.0412805, Final residual = 1.591e-15, No Iterations 1
DILUPBiCGStab:  Solving for f12.air.bubbles, Initial residual = 0.0121854, Final residual = 4.71362e-16, No Iterations 1
DILUPBiCGStab:  Solving for f13.air.bubbles, Initial residual = 0.00371055, Final residual = 1.07676e-15, No Iterations 1
DILUPBiCGStab:  Solving for f14.air.bubbles, Initial residual = 0.0212494, Final residual = 1.5247e-15, No Iterations 1
DILUPBiCGStab:  Solving for f15.air.bubbles, Initial residual = 0.0142357, Final residual = 4.24666e-16, No Iterations 1
DILUPBiCGStab:  Solving for f16.air.bubbles, Initial residual = 0.216872, Final residual = 6.59612e-14, No Iterations 1
DILUPBiCGStab:  Solving for f17.air.bubbles, Initial residual = 0.420428, Final residual = 2.00247e-13, No Iterations 1
DILUPBiCGStab:  Solving for f18.air.bubbles, Initial residual = 1, Final residual = 5.49609e-13, No Iterations 1
DILUPBiCGStab:  Solving for f19.air.bubbles, Initial residual = 0, Final residual = 0, No Iterations 0
DILUPBiCGStab:  Solving for f20.air.bubbles, Initial residual = 0, Final residual = 0, No Iterations 0
DILUPBiCGStab:  Solving for f21.air.bubbles, Initial residual = 0, Final residual = 0, No Iterations 0
air Sauter mean diameter, min, max = 0.00292758 0.00283684 0.0029289
air sizeGroups-sum volume fraction, min, max = 1 1 1.00016
bubbles sizeGroup phase fraction first, last = 5.50616e-08 0
Constructing momentum equations
smoothSolver:  Solving for e.air, Initial residual = 5.85766e-07, Final residual = 2.75304e-14, No Iterations 1
smoothSolver:  Solving for e.water, Initial residual = 6.87645e-11, Final residual = 8.76605e-16, No Iterations 1
GAMG:  Solving for p_rgh, Initial residual = 9.23176e-07, Final residual = 1.29269e-09, No Iterations 1
ExecutionTime = 0.54 s


fieldAverage fieldAverage1 write:
    Calculating averages

Courant Number mean: 3.86833e-05 max: 0.000129045
Max Ur Courant Number = 0.00391892
deltaT = 2.0736e-05
Time = 6.4416e-05

PIMPLE: Iteration 1
MULES: Solving for alpha.air
MULES: Solving for alpha.air
alpha.air volume fraction = 0.293337  Min(alpha1) = 0  Max(alpha1) = 1
Constructing momentum equations
smoothSolver:  Solving for e.air, Initial residual = 1.21027e-05, Final residual = 5.481e-13, No Iterations 1
smoothSolver:  Solving for e.water, Initial residual = 3.03646e-09, Final residual = 1.07553e-15, No Iterations 1
GAMG:  Solving for p_rgh, Initial residual = 0.000159028, Final residual = 1.49595e-09, No Iterations 3
PIMPLE: Iteration 2
MULES: Solving for alpha.air
MULES: Solving for alpha.air
alpha.air volume fraction = 0.293337  Min(alpha1) = 0  Max(alpha1) = 1
Constructing momentum equations
smoothSolver:  Solving for e.air, Initial residual = 4.82866e-06, Final residual = 4.20506e-13, No Iterations 1
smoothSolver:  Solving for e.water, Initial residual = 8.8987e-10, Final residual = 1.08518e-15, No Iterations 1
GAMG:  Solving for p_rgh, Initial residual = 8.77544e-06, Final residual = 2.75717e-10, No Iterations 2
PIMPLE: Iteration 3
MULES: Solving for alpha.air
MULES: Solving for alpha.air
alpha.air volume fraction = 0.293337  Min(alpha1) = 0  Max(alpha1) = 1
populationBalance bubbles: Iteration 1
DILUPBiCGStab:  Solving for f0.air.bubbles, Initial residual = 0.25784, Final residual = 2.6778e-14, No Iterations 1
DILUPBiCGStab:  Solving for f1.air.bubbles, Initial residual = 0.256355, Final residual = 2.6517e-14, No Iterations 1
DILUPBiCGStab:  Solving for f2.air.bubbles, Initial residual = 0.256314, Final residual = 2.6504e-14, No Iterations 1
DILUPBiCGStab:  Solving for f3.air.bubbles, Initial residual = 0.256243, Final residual = 2.64954e-14, No Iterations 1
DILUPBiCGStab:  Solving for f4.air.bubbles, Initial residual = 0.256334, Final residual = 2.65083e-14, No Iterations 1
DILUPBiCGStab:  Solving for f5.air.bubbles, Initial residual = 0.256205, Final residual = 2.64197e-14, No Iterations 1
DILUPBiCGStab:  Solving for f6.air.bubbles, Initial residual = 0.256227, Final residual = 2.64597e-14, No Iterations 1
DILUPBiCGStab:  Solving for f7.air.bubbles, Initial residual = 0.2562, Final residual = 2.64562e-14, No Iterations 1
DILUPBiCGStab:  Solving for f8.air.bubbles, Initial residual = 0.25617, Final residual = 2.64998e-14, No Iterations 1
DILUPBiCGStab:  Solving for f9.air.bubbles, Initial residual = 0.256156, Final residual = 2.64851e-14, No Iterations 1
DILUPBiCGStab:  Solving for f10.air.bubbles, Initial residual = 0.995415, Final residual = 1.02553e-13, No Iterations 1
DILUPBiCGStab:  Solving for f11.air.bubbles, Initial residual = 0.046526, Final residual = 4.77054e-15, No Iterations 1
DILUPBiCGStab:  Solving for f12.air.bubbles, Initial residual = 0.0175896, Final residual = 1.80987e-15, No Iterations 1
DILUPBiCGStab:  Solving for f13.air.bubbles, Initial residual = 0.00568899, Final residual = 3.21332e-15, No Iterations 1
DILUPBiCGStab:  Solving for f14.air.bubbles, Initial residual = 0.0305355, Final residual = 4.88592e-15, No Iterations 1
DILUPBiCGStab:  Solving for f15.air.bubbles, Initial residual = 0.0191867, Final residual = 3.93189e-16, No Iterations 1
DILUPBiCGStab:  Solving for f16.air.bubbles, Initial residual = 0.166927, Final residual = 9.88382e-14, No Iterations 1
DILUPBiCGStab:  Solving for f17.air.bubbles, Initial residual = 0.274635, Final residual = 2.8279e-13, No Iterations 1
DILUPBiCGStab:  Solving for f18.air.bubbles, Initial residual = 0.481307, Final residual = 6.51744e-13, No Iterations 1
DILUPBiCGStab:  Solving for f19.air.bubbles, Initial residual = 0.999999, Final residual = 1.57948e-12, No Iterations 1
DILUPBiCGStab:  Solving for f20.air.bubbles, Initial residual = 0, Final residual = 0, No Iterations 0
DILUPBiCGStab:  Solving for f21.air.bubbles, Initial residual = 0, Final residual = 0, No Iterations 0
air Sauter mean diameter, min, max = 0.00292785 0.00286154 0.0029289
air sizeGroups-sum volume fraction, min, max = 1 1 1.0001
bubbles sizeGroup phase fraction first, last = 8.12312e-08 0
Constructing momentum equations
smoothSolver:  Solving for e.air, Initial residual = 4.01434e-07, Final residual = 2.38299e-14, No Iterations 1
smoothSolver:  Solving for e.water, Initial residual = 3.67912e-11, Final residual = 1.1121e-15, No Iterations 1
GAMG:  Solving for p_rgh, Initial residual = 6.43656e-07, Final residual = 7.48054e-10, No Iterations 1
ExecutionTime = 0.69 s


fieldAverage fieldAverage1 write:
    Calculating averages

Courant Number mean: 4.7312e-05 max: 0.000154537
Max Ur Courant Number = 0.00402804
deltaT = 2.48832e-05
Time = 8.92992e-05

PIMPLE: Iteration 1
MULES: Solving for alpha.air
MULES: Solving for alpha.air
alpha.air volume fraction = 0.293338  Min(alpha1) = 0  Max(alpha1) = 1
Constructing momentum equations
smoothSolver:  Solving for e.air, Initial residual = 1.48465e-05, Final residual = 3.67492e-13, No Iterations 1
smoothSolver:  Solving for e.water, Initial residual = 4.39193e-09, Final residual = 9.01153e-16, No Iterations 1
GAMG:  Solving for p_rgh, Initial residual = 0.000144879, Final residual = 5.04707e-09, No Iterations 3
PIMPLE: Iteration 2
MULES: Solving for alpha.air
MULES: Solving for alpha.air
alpha.air volume fraction = 0.293338  Min(alpha1) = 0  Max(alpha1) = 1
Constructing momentum equations
smoothSolver:  Solving for e.air, Initial residual = 6.58526e-06, Final residual = 3.36044e-13, No Iterations 1
smoothSolver:  Solving for e.water, Initial residual = 1.42654e-09, Final residual = 8.68071e-16, No Iterations 1
GAMG:  Solving for p_rgh, Initial residual = 9.1582e-06, Final residual = 2.67735e-09, No Iterations 1
PIMPLE: Iteration 3
MULES: Solving for alpha.air
MULES: Solving for alpha.air
alpha.air volume fraction = 0.293338  Min(alpha1) = 0  Max(alpha1) = 1
populationBalance bubbles: Iteration 1
DILUPBiCGStab:  Solving for f0.air.bubbles, Initial residual = 0.220716, Final residual = 5.12707e-14, No Iterations 1
DILUPBiCGStab:  Solving for f1.air.bubbles, Initial residual = 0.219926, Final residual = 5.08973e-14, No Iterations 1
DILUPBiCGStab:  Solving for f2.air.bubbles, Initial residual = 0.219889, Final residual = 5.09106e-14, No Iterations 1
DILUPBiCGStab:  Solving for f3.air.bubbles, Initial residual = 0.219827, Final residual = 5.07137e-14, No Iterations 1
DILUPBiCGStab:  Solving for f4.air.bubbles, Initial residual = 0.219861, Final residual = 5.08648e-14, No Iterations 1
DILUPBiCGStab:  Solving for f5.air.bubbles, Initial residual = 0.219773, Final residual = 5.07139e-14, No Iterations 1
DILUPBiCGStab:  Solving for f6.air.bubbles, Initial residual = 0.219765, Final residual = 5.08219e-14, No Iterations 1
DILUPBiCGStab:  Solving for f7.air.bubbles, Initial residual = 0.219732, Final residual = 5.08211e-14, No Iterations 1
DILUPBiCGStab:  Solving for f8.air.bubbles, Initial residual = 0.219697, Final residual = 5.08108e-14, No Iterations 1
DILUPBiCGStab:  Solving for f9.air.bubbles, Initial residual = 0.225551, Final residual = 5.21106e-14, No Iterations 1
DILUPBiCGStab:  Solving for f10.air.bubbles, Initial residual = 0.628274, Final residual = 1.45197e-13, No Iterations 1
DILUPBiCGStab:  Solving for f11.air.bubbles, Initial residual = 0.0907874, Final residual = 2.09638e-14, No Iterations 1
DILUPBiCGStab:  Solving for f12.air.bubbles, Initial residual = 0.0303109, Final residual = 6.96563e-15, No Iterations 1
DILUPBiCGStab:  Solving for f13.air.bubbles, Initial residual = 0.00901076, Final residual = 8.00217e-15, No Iterations 1
DILUPBiCGStab:  Solving for f14.air.bubbles, Initial residual = 0.0547629, Final residual = 1.70387e-14, No Iterations 1
DILUPBiCGStab:  Solving for f15.air.bubbles, Initial residual = 0.0313586, Final residual = 1.93679e-15, No Iterations 1
DILUPBiCGStab:  Solving for f16.air.bubbles, Initial residual = 0.143087, Final residual = 1.32867e-13, No Iterations 1
DILUPBiCGStab:  Solving for f17.air.bubbles, Initial residual = 0.205818, Final residual = 3.58926e-13, No Iterations 1
DILUPBiCGStab:  Solving for f18.air.bubbles, Initial residual = 0.319728, Final residual = 7.82606e-13, No Iterations 1
DILUPBiCGStab:  Solving for f19.air.bubbles, Initial residual = 0.532446, Final residual = 1.60861e-12, No Iterations 1
DILUPBiCGStab:  Solving for f20.air.bubbles, Initial residual = 0.995933, Final residual = 3.53657e-12, No Iterations 1
DILUPBiCGStab:  Solving for f21.air.bubbles, Initial residual = 0, Final residual = 0, No Iterations 0
air Sauter mean diameter, min, max = 0.00292813 0.00288624 0.0029289
air sizeGroups-sum volume fraction, min, max = 1 1 1.00008
bubbles sizeGroup phase fraction first, last = 1.1266e-07 0
Constructing momentum equations
smoothSolver:  Solving for e.air, Initial residual = 6.64187e-07, Final residual = 1.2994e-14, No Iterations 1
smoothSolver:  Solving for e.water, Initial residual = 3.31628e-11, Final residual = 8.68766e-16, No Iterations 1
GAMG:  Solving for p_rgh, Initial residual = 9.20056e-07, Final residual = 9.77394e-10, No Iterations 1
ExecutionTime = 0.84 s


fieldAverage fieldAverage1 write:
    Calculating averages

Courant Number mean: 5.80378e-05 max: 0.000184989
Max Ur Courant Number = 0.00420729
deltaT = 2.98598e-05
Time = 0.000119159

PIMPLE: Iteration 1
MULES: Solving for alpha.air
MULES: Solving for alpha.air
alpha.air volume fraction = 0.29334  Min(alpha1) = 0  Max(alpha1) = 1
Constructing momentum equations
smoothSolver:  Solving for e.air, Initial residual = 1.81857e-05, Final residual = 1.14484e-13, No Iterations 1
smoothSolver:  Solving for e.water, Initial residual = 5.67916e-09, Final residual = 8.83311e-16, No Iterations 1
GAMG:  Solving for p_rgh, Initial residual = 0.000130035, Final residual = 1.64087e-09, No Iterations 4
PIMPLE: Iteration 2
MULES: Solving for alpha.air
MULES: Solving for alpha.air
alpha.air volume fraction = 0.29334  Min(alpha1) = 0  Max(alpha1) = 1
Constructing momentum equations
smoothSolver:  Solving for e.air, Initial residual = 7.57354e-06, Final residual = 2.64863e-13, No Iterations 1
smoothSolver:  Solving for e.water, Initial residual = 1.96384e-09, Final residual = 8.85472e-16, No Iterations 1
GAMG:  Solving for p_rgh, Initial residual = 8.54014e-06, Final residual = 8.83025e-09, No Iterations 1
PIMPLE: Iteration 3
MULES: Solving for alpha.air
MULES: Solving for alpha.air
alpha.air volume fraction = 0.29334  Min(alpha1) = 0  Max(alpha1) = 1
populationBalance bubbles: Iteration 1
DILUPBiCGStab:  Solving for f0.air.bubbles, Initial residual = 0.196984, Final residual = 9.18752e-14, No Iterations 1
DILUPBiCGStab:  Solving for f1.air.bubbles, Initial residual = 0.196568, Final residual = 9.10992e-14, No Iterations 1
DILUPBiCGStab:  Solving for f2.air.bubbles, Initial residual = 0.196543, Final residual = 9.1101e-14, No Iterations 1
DILUPBiCGStab:  Solving for f3.air.bubbles, Initial residual = 0.196487, Final residual = 9.10641e-14, No Iterations 1
DILUPBiCGStab:  Solving for f4.air.bubbles, Initial residual = 0.196474, Final residual = 9.11119e-14, No Iterations 1
DILUPBiCGStab:  Solving for f5.air.bubbles, Initial residual = 0.196416, Final residual = 9.1056e-14, No Iterations 1
DILUPBiCGStab:  Solving for f6.air.bubbles, Initial residual = 0.196383, Final residual = 9.11001e-14, No Iterations 1
DILUPBiCGStab:  Solving for f7.air.bubbles, Initial residual = 0.196343, Final residual = 9.09926e-14, No Iterations 1
DILUPBiCGStab:  Solving for f8.air.bubbles, Initial residual = 0.196302, Final residual = 9.10054e-14, No Iterations 1
DILUPBiCGStab:  Solving for f9.air.bubbles, Initial residual = 0.198925, Final residual = 9.21838e-14, No Iterations 1
DILUPBiCGStab:  Solving for f10.air.bubbles, Initial residual = 0.294868, Final residual = 1.36583e-13, No Iterations 1
DILUPBiCGStab:  Solving for f11.air.bubbles, Initial residual = 0.253725, Final residual = 1.17332e-13, No Iterations 1
DILUPBiCGStab:  Solving for f12.air.bubbles, Initial residual = 0.0564742, Final residual = 2.60383e-14, No Iterations 1
DILUPBiCGStab:  Solving for f13.air.bubbles, Initial residual = 0.0168171, Final residual = 2.08479e-14, No Iterations 1
DILUPBiCGStab:  Solving for f14.air.bubbles, Initial residual = 0.100401, Final residual = 5.59544e-14, No Iterations 1
DILUPBiCGStab:  Solving for f15.air.bubbles, Initial residual = 0.0667497, Final residual = 1.6226e-14, No Iterations 1
DILUPBiCGStab:  Solving for f16.air.bubbles, Initial residual = 0.0664468, Final residual = 8.5328e-14, No Iterations 1
DILUPBiCGStab:  Solving for f17.air.bubbles, Initial residual = 0.301741, Final residual = 3.88652e-13, No Iterations 1
DILUPBiCGStab:  Solving for f18.air.bubbles, Initial residual = 0.230423, Final residual = 9.49622e-13, No Iterations 1
DILUPBiCGStab:  Solving for f19.air.bubbles, Initial residual = 0.345085, Final residual = 1.82058e-12, No Iterations 1
DILUPBiCGStab:  Solving for f20.air.bubbles, Initial residual = 0.559642, Final residual = 3.49394e-12, No Iterations 1
DILUPBiCGStab:  Solving for f21.air.bubbles, Initial residual = 0.0269999, Final residual = 1.94641e-13, No Iterations 1
air Sauter mean diameter, min, max = 0.00292833 0.0029054 0.0029289
air sizeGroups-sum volume fraction, min, max = 1 1 1.00007
bubbles sizeGroup phase fraction first, last = 1.50412e-07 4.76745e-25
Constructing momentum equations
smoothSolver:  Solving for e.air, Initial residual = 8.58949e-07, Final residual = 5.622e-14, No Iterations 1
smoothSolver:  Solving for e.water, Initial residual = 2.8559e-11, Final residual = 8.82556e-16, No Iterations 1
GAMG:  Solving for p_rgh, Initial residual = 9.60958e-07, Final residual = 1.98818e-09, No Iterations 1
ExecutionTime = 1 s


fieldAverage fieldAverage1 write:
    Calculating averages

Courant Number mean: 7.12976e-05 max: 0.000221331
Max Ur Courant Number = 0.00458518
deltaT = 3.58318e-05
Time = 0.000154991

PIMPLE: Iteration 1
MULES: Solving for alpha.air
MULES: Solving for alpha.air
alpha.air volume fraction = 0.293342  Min(alpha1) = 0  Max(alpha1) = 1
Constructing momentum equations
smoothSolver:  Solving for e.air, Initial residual = 2.31378e-05, Final residual = 3.11834e-13, No Iterations 1
smoothSolver:  Solving for e.water, Initial residual = 6.9565e-09, Final residual = 9.84145e-16, No Iterations 1
GAMG:  Solving for p_rgh, Initial residual = 0.000120788, Final residual = 5.16921e-09, No Iterations 4
PIMPLE: Iteration 2
MULES: Solving for alpha.air
MULES: Solving for alpha.air
alpha.air volume fraction = 0.293342  Min(alpha1) = 0  Max(alpha1) = 1
Constructing momentum equations
smoothSolver:  Solving for e.air, Initial residual = 8.97902e-06, Final residual = 2.02333e-13, No Iterations 1
smoothSolver:  Solving for e.water, Initial residual = 2.46821e-09, Final residual = 1.01168e-15, No Iterations 1
GAMG:  Solving for p_rgh, Initial residual = 8.10957e-06, Final residual = 5.27042e-10, No Iterations 2
PIMPLE: Iteration 3
MULES: Solving for alpha.air
MULES: Solving for alpha.air
alpha.air volume fraction = 0.293342  Min(alpha1) = 0  Max(alpha1) = 1
populationBalance bubbles: Iteration 1
DILUPBiCGStab:  Solving for f0.air.bubbles, Initial residual = 0.180802, Final residual = 1.50998e-13, No Iterations 1
DILUPBiCGStab:  Solving for f1.air.bubbles, Initial residual = 0.18054, Final residual = 1.4941e-13, No Iterations 1
DILUPBiCGStab:  Solving for f2.air.bubbles, Initial residual = 0.180524, Final residual = 1.49365e-13, No Iterations 1
DILUPBiCGStab:  Solving for f3.air.bubbles, Initial residual = 0.180464, Final residual = 1.4942e-13, No Iterations 1
DILUPBiCGStab:  Solving for f4.air.bubbles, Initial residual = 0.180423, Final residual = 1.49405e-13, No Iterations 1
DILUPBiCGStab:  Solving for f5.air.bubbles, Initial residual = 0.180377, Final residual = 1.4914e-13, No Iterations 1
DILUPBiCGStab:  Solving for f6.air.bubbles, Initial residual = 0.180325, Final residual = 1.49293e-13, No Iterations 1
DILUPBiCGStab:  Solving for f7.air.bubbles, Initial residual = 0.180278, Final residual = 1.49258e-13, No Iterations 1
DILUPBiCGStab:  Solving for f8.air.bubbles, Initial residual = 0.180228, Final residual = 1.4917e-13, No Iterations 1
DILUPBiCGStab:  Solving for f9.air.bubbles, Initial residual = 0.1815, Final residual = 1.50225e-13, No Iterations 1
DILUPBiCGStab:  Solving for f10.air.bubbles, Initial residual = 0.220379, Final residual = 1.82362e-13, No Iterations 1
DILUPBiCGStab:  Solving for f11.air.bubbles, Initial residual = 0.987302, Final residual = 8.15638e-13, No Iterations 1
DILUPBiCGStab:  Solving for f12.air.bubbles, Initial residual = 0.112722, Final residual = 9.28891e-14, No Iterations 1
DILUPBiCGStab:  Solving for f13.air.bubbles, Initial residual = 0.0375657, Final residual = 6.121e-14, No Iterations 1
DILUPBiCGStab:  Solving for f14.air.bubbles, Initial residual = 0.179532, Final residual = 1.65146e-13, No Iterations 1
DILUPBiCGStab:  Solving for f15.air.bubbles, Initial residual = 0.262553, Final residual = 1.59273e-13, No Iterations 1
DILUPBiCGStab:  Solving for f16.air.bubbles, Initial residual = 0.0453732, Final residual = 7.59676e-14, No Iterations 1
DILUPBiCGStab:  Solving for f17.air.bubbles, Initial residual = 0.00419005, Final residual = 5.58468e-15, No Iterations 1
DILUPBiCGStab:  Solving for f18.air.bubbles, Initial residual = 0.968994, Final residual = 2.33945e-13, No Iterations 1
DILUPBiCGStab:  Solving for f19.air.bubbles, Initial residual = 0.24461, Final residual = 2.24679e-12, No Iterations 1
DILUPBiCGStab:  Solving for f20.air.bubbles, Initial residual = 0.357648, Final residual = 4.05867e-12, No Iterations 1
DILUPBiCGStab:  Solving for f21.air.bubbles, Initial residual = 0.0699926, Final residual = 9.12533e-13, No Iterations 1
air Sauter mean diameter, min, max = 0.00292844 0.00291849 0.0029289
air sizeGroups-sum volume fraction, min, max = 1 1 1.00006
bubbles sizeGroup phase fraction first, last = 1.95768e-07 2.12161e-24
Constructing momentum equations
smoothSolver:  Solving for e.air, Initial residual = 1.15683e-06, Final residual = 9.3373e-14, No Iterations 1
smoothSolver:  Solving for e.water, Initial residual = 2.30726e-11, Final residual = 9.90711e-16, No Iterations 1
GAMG:  Solving for p_rgh, Initial residual = 1.02535e-06, Final residual = 2.13881e-09, No Iterations 1
ExecutionTime = 1.16 s


fieldAverage fieldAverage1 write:
    Calculating averages

Courant Number mean: 8.76793e-05 max: 0.000264653
Max Ur Courant Number = 0.00501467
deltaT = 4.29982e-05
Time = 0.000197989

PIMPLE: Iteration 1
MULES: Solving for alpha.air
MULES: Solving for alpha.air
alpha.air volume fraction = 0.293345  Min(alpha1) = 0  Max(alpha1) = 1
Constructing momentum equations
smoothSolver:  Solving for e.air, Initial residual = 2.88749e-05, Final residual = 8.11911e-13, No Iterations 1
smoothSolver:  Solving for e.water, Initial residual = 8.31997e-09, Final residual = 1.21417e-15, No Iterations 1
GAMG:  Solving for p_rgh, Initial residual = 0.000115456, Final residual = 2.56517e-09, No Iterations 5
PIMPLE: Iteration 2
MULES: Solving for alpha.air
MULES: Solving for alpha.air
alpha.air volume fraction = 0.293345  Min(alpha1) = 0  Max(alpha1) = 1
Constructing momentum equations
smoothSolver:  Solving for e.air, Initial residual = 1.12095e-05, Final residual = 1.10963e-13, No Iterations 1
smoothSolver:  Solving for e.water, Initial residual = 2.99066e-09, Final residual = 1.22792e-15, No Iterations 1
GAMG:  Solving for p_rgh, Initial residual = 8.02217e-06, Final residual = 4.58514e-10, No Iterations 2
PIMPLE: Iteration 3
MULES: Solving for alpha.air
MULES: Solving for alpha.air
alpha.air volume fraction = 0.293345  Min(alpha1) = 4.62194e-212  Max(alpha1) = 1
populationBalance bubbles: Iteration 1
DILUPBiCGStab:  Solving for f0.air.bubbles, Initial residual = 0.169271, Final residual = 2.60394e-13, No Iterations 1
DILUPBiCGStab:  Solving for f1.air.bubbles, Initial residual = 0.16906, Final residual = 2.57282e-13, No Iterations 1
DILUPBiCGStab:  Solving for f2.air.bubbles, Initial residual = 0.169041, Final residual = 2.56996e-13, No Iterations 1
DILUPBiCGStab:  Solving for f3.air.bubbles, Initial residual = 0.168972, Final residual = 2.56986e-13, No Iterations 1
DILUPBiCGStab:  Solving for f4.air.bubbles, Initial residual = 0.168915, Final residual = 2.57231e-13, No Iterations 1
DILUPBiCGStab:  Solving for f5.air.bubbles, Initial residual = 0.168866, Final residual = 2.56708e-13, No Iterations 1
DILUPBiCGStab:  Solving for f6.air.bubbles, Initial residual = 0.1688, Final residual = 2.56921e-13, No Iterations 1
DILUPBiCGStab:  Solving for f7.air.bubbles, Initial residual = 0.168742, Final residual = 2.56903e-13, No Iterations 1
DILUPBiCGStab:  Solving for f8.air.bubbles, Initial residual = 0.168682, Final residual = 2.56675e-13, No Iterations 1
DILUPBiCGStab:  Solving for f9.air.bubbles, Initial residual = 0.169331, Final residual = 2.57687e-13, No Iterations 1
DILUPBiCGStab:  Solving for f10.air.bubbles, Initial residual = 0.188401, Final residual = 2.86538e-13, No Iterations 1
DILUPBiCGStab:  Solving for f11.air.bubbles, Initial residual = 0.388831, Final residual = 5.90891e-13, No Iterations 1
DILUPBiCGStab:  Solving for f12.air.bubbles, Initial residual = 0.273543, Final residual = 4.14893e-13, No Iterations 1
DILUPBiCGStab:  Solving for f13.air.bubbles, Initial residual = 0.0969378, Final residual = 2.19579e-13, No Iterations 1
DILUPBiCGStab:  Solving for f14.air.bubbles, Initial residual = 0.341232, Final residual = 5.48149e-13, No Iterations 1
DILUPBiCGStab:  Solving for f15.air.bubbles, Initial residual = 0.26091, Final residual = 3.41824e-13, No Iterations 1
DILUPBiCGStab:  Solving for f16.air.bubbles, Initial residual = 0.0422265, Final residual = 9.74926e-14, No Iterations 1
DILUPBiCGStab:  Solving for f17.air.bubbles, Initial residual = 0.00168799, Final residual = 3.69192e-15, No Iterations 1
DILUPBiCGStab:  Solving for f18.air.bubbles, Initial residual = 0.00398066, Final residual = 1.62388e-15, No Iterations 1
DILUPBiCGStab:  Solving for f19.air.bubbles, Initial residual = 0.999772, Final residual = 3.71279e-13, No Iterations 1
DILUPBiCGStab:  Solving for f20.air.bubbles, Initial residual = 0.263928, Final residual = 5.59731e-12, No Iterations 1
DILUPBiCGStab:  Solving for f21.air.bubbles, Initial residual = 0.101469, Final residual = 2.52849e-12, No Iterations 1
air Sauter mean diameter, min, max = 0.00292847 0.00292221 0.0029289
air sizeGroups-sum volume fraction, min, max = 1 1 1.00005
bubbles sizeGroup phase fraction first, last = 2.50272e-07 5.53112e-24
Constructing momentum equations
smoothSolver:  Solving for e.air, Initial residual = 1.4573e-06, Final residual = 1.30993e-13, No Iterations 1
smoothSolver:  Solving for e.water, Initial residual = 2.63742e-11, Final residual = 1.18165e-15, No Iterations 1
GAMG:  Solving for p_rgh, Initial residual = 1.02952e-06, Final residual = 3.08431e-09, No Iterations 1
ExecutionTime = 1.31 s


fieldAverage fieldAverage1 write:
    Calculating averages

Courant Number mean: 0.000107915 max: 0.000316221
Max Ur Courant Number = 0.00549298
deltaT = 5.15978e-05
Time = 0.000249587

PIMPLE: Iteration 1
MULES: Solving for alpha.air
MULES: Solving for alpha.air
alpha.air volume fraction = 0.293348  Min(alpha1) = 2.13132e-198  Max(alpha1) = 1
Constructing momentum equations
smoothSolver:  Solving for e.air, Initial residual = 3.50741e-05, Final residual = 1.46034e-12, No Iterations 1
smoothSolver:  Solving for e.water, Initial residual = 9.87728e-09, Final residual = 8.59484e-16, No Iterations 1
GAMG:  Solving for p_rgh, Initial residual = 0.000109431, Final residual = 7.30604e-09, No Iterations 5
PIMPLE: Iteration 2
MULES: Solving for alpha.air
MULES: Solving for alpha.air
alpha.air volume fraction = 0.293348  Min(alpha1) = 4.2251e-188  Max(alpha1) = 1
Constructing momentum equations
smoothSolver:  Solving for e.air, Initial residual = 1.39795e-05, Final residual = 2.02734e-13, No Iterations 1
smoothSolver:  Solving for e.water, Initial residual = 3.5585e-09, Final residual = 8.629e-16, No Iterations 1
GAMG:  Solving for p_rgh, Initial residual = 7.88968e-06, Final residual = 1.1016e-09, No Iterations 2
PIMPLE: Iteration 3
MULES: Solving for alpha.air
MULES: Solving for alpha.air
alpha.air volume fraction = 0.293348  Min(alpha1) = 2.09055e-186  Max(alpha1) = 1
populationBalance bubbles: Iteration 1
DILUPBiCGStab:  Solving for f0.air.bubbles, Initial residual = 0.160794, Final residual = 4.31612e-13, No Iterations 1
DILUPBiCGStab:  Solving for f1.air.bubbles, Initial residual = 0.160585, Final residual = 4.27722e-13, No Iterations 1
DILUPBiCGStab:  Solving for f2.air.bubbles, Initial residual = 0.160557, Final residual = 4.27382e-13, No Iterations 1
DILUPBiCGStab:  Solving for f3.air.bubbles, Initial residual = 0.160475, Final residual = 4.27288e-13, No Iterations 1
DILUPBiCGStab:  Solving for f4.air.bubbles, Initial residual = 0.160406, Final residual = 4.27476e-13, No Iterations 1
DILUPBiCGStab:  Solving for f5.air.bubbles, Initial residual = 0.160344, Final residual = 4.26813e-13, No Iterations 1
DILUPBiCGStab:  Solving for f6.air.bubbles, Initial residual = 0.160265, Final residual = 4.26832e-13, No Iterations 1
DILUPBiCGStab:  Solving for f7.air.bubbles, Initial residual = 0.160195, Final residual = 4.26697e-13, No Iterations 1
DILUPBiCGStab:  Solving for f8.air.bubbles, Initial residual = 0.160122, Final residual = 4.26554e-13, No Iterations 1
DILUPBiCGStab:  Solving for f9.air.bubbles, Initial residual = 0.160455, Final residual = 4.27373e-13, No Iterations 1
DILUPBiCGStab:  Solving for f10.air.bubbles, Initial residual = 0.170841, Final residual = 4.54907e-13, No Iterations 1
DILUPBiCGStab:  Solving for f11.air.bubbles, Initial residual = 0.244609, Final residual = 6.50912e-13, No Iterations 1
DILUPBiCGStab:  Solving for f12.air.bubbles, Initial residual = 0.980332, Final residual = 2.60444e-12, No Iterations 1
DILUPBiCGStab:  Solving for f13.air.bubbles, Initial residual = 0.113697, Final residual = 3.71809e-13, No Iterations 1
DILUPBiCGStab:  Solving for f14.air.bubbles, Initial residual = 0.68276, Final residual = 1.86247e-12, No Iterations 1
DILUPBiCGStab:  Solving for f15.air.bubbles, Initial residual = 0.183858, Final residual = 4.5889e-13, No Iterations 1
DILUPBiCGStab:  Solving for f16.air.bubbles, Initial residual = 0.0467153, Final residual = 1.54813e-13, No Iterations 1
DILUPBiCGStab:  Solving for f17.air.bubbles, Initial residual = 0.000928354, Final residual = 4.27569e-15, No Iterations 1
DILUPBiCGStab:  Solving for f18.air.bubbles, Initial residual = 0.00159262, Final residual = 1.18623e-15, No Iterations 1
DILUPBiCGStab:  Solving for f19.air.bubbles, Initial residual = 0.00490943, Final residual = 3.33808e-15, No Iterations 1
DILUPBiCGStab:  Solving for f20.air.bubbles, Initial residual = 0.999998, Final residual = 6.79357e-13, No Iterations 1
DILUPBiCGStab:  Solving for f21.air.bubbles, Initial residual = 0.122733, Final residual = 5.71184e-12, No Iterations 1
air Sauter mean diameter, min, max = 0.00292847 0.00292281 0.00293135
air sizeGroups-sum volume fraction, min, max = 1 1 1.00004
bubbles sizeGroup phase fraction first, last = 3.15788e-07 1.16276e-23
Constructing momentum equations
smoothSolver:  Solving for e.air, Initial residual = 1.89374e-06, Final residual = 1.49672e-13, No Iterations 1
smoothSolver:  Solving for e.water, Initial residual = 3.69247e-11, Final residual = 8.60034e-16, No Iterations 1
GAMG:  Solving for p_rgh, Initial residual = 1.06083e-06, Final residual = 4.55107e-09, No Iterations 1
ExecutionTime = 1.47 s


fieldAverage fieldAverage1 write:
    Calculating averages

Courant Number mean: 0.000132848 max: 0.000377471
Max Ur Courant Number = 0.00601584
deltaT = 6.19174e-05
Time = 0.000311504

PIMPLE: Iteration 1
MULES: Solving for alpha.air
MULES: Solving for alpha.air
alpha.air volume fraction = 0.293352  Min(alpha1) = 5.71665e-182  Max(alpha1) = 1
Constructing momentum equations
smoothSolver:  Solving for e.air, Initial residual = 4.20248e-05, Final residual = 2.21833e-12, No Iterations 1
smoothSolver:  Solving for e.water, Initial residual = 1.17296e-08, Final residual = 9.00286e-16, No Iterations 1
GAMG:  Solving for p_rgh, Initial residual = 0.000103875, Final residual = 3.72706e-09, No Iterations 6
PIMPLE: Iteration 2
MULES: Solving for alpha.air
MULES: Solving for alpha.air
alpha.air volume fraction = 0.293352  Min(alpha1) = 5.26104e-181  Max(alpha1) = 1
Constructing momentum equations
smoothSolver:  Solving for e.air, Initial residual = 1.76584e-05, Final residual = 4.46032e-13, No Iterations 1
smoothSolver:  Solving for e.water, Initial residual = 4.23446e-09, Final residual = 8.60259e-16, No Iterations 1
GAMG:  Solving for p_rgh, Initial residual = 7.70368e-06, Final residual = 2.39104e-09, No Iterations 2
PIMPLE: Iteration 3
MULES: Solving for alpha.air
MULES: Solving for alpha.air
alpha.air volume fraction = 0.293352  Min(alpha1) = 6.44416e-181  Max(alpha1) = 1
populationBalance bubbles: Iteration 1
DILUPBiCGStab:  Solving for f0.air.bubbles, Initial residual = 0.154343, Final residual = 5.91024e-13, No Iterations 1
DILUPBiCGStab:  Solving for f1.air.bubbles, Initial residual = 0.154188, Final residual = 5.89401e-13, No Iterations 1
DILUPBiCGStab:  Solving for f2.air.bubbles, Initial residual = 0.154143, Final residual = 5.89998e-13, No Iterations 1
DILUPBiCGStab:  Solving for f3.air.bubbles, Initial residual = 0.154052, Final residual = 5.91174e-13, No Iterations 1
DILUPBiCGStab:  Solving for f4.air.bubbles, Initial residual = 0.153962, Final residual = 5.88415e-13, No Iterations 1
DILUPBiCGStab:  Solving for f5.air.bubbles, Initial residual = 0.153889, Final residual = 5.8962e-13, No Iterations 1
DILUPBiCGStab:  Solving for f6.air.bubbles, Initial residual = 0.153795, Final residual = 5.89325e-13, No Iterations 1
DILUPBiCGStab:  Solving for f7.air.bubbles, Initial residual = 0.153709, Final residual = 5.88902e-13, No Iterations 1
DILUPBiCGStab:  Solving for f8.air.bubbles, Initial residual = 0.153622, Final residual = 5.8845e-13, No Iterations 1
DILUPBiCGStab:  Solving for f9.air.bubbles, Initial residual = 0.153778, Final residual = 5.88917e-13, No Iterations 1
DILUPBiCGStab:  Solving for f10.air.bubbles, Initial residual = 0.159812, Final residual = 6.11791e-13, No Iterations 1
DILUPBiCGStab:  Solving for f11.air.bubbles, Initial residual = 0.195931, Final residual = 7.49249e-13, No Iterations 1
DILUPBiCGStab:  Solving for f12.air.bubbles, Initial residual = 0.449298, Final residual = 1.71957e-12, No Iterations 1
DILUPBiCGStab:  Solving for f13.air.bubbles, Initial residual = 0.105902, Final residual = 4.35955e-13, No Iterations 1
DILUPBiCGStab:  Solving for f14.air.bubbles, Initial residual = 0.58235, Final residual = 2.24633e-12, No Iterations 1
DILUPBiCGStab:  Solving for f15.air.bubbles, Initial residual = 0.142778, Final residual = 5.35835e-13, No Iterations 1
DILUPBiCGStab:  Solving for f16.air.bubbles, Initial residual = 0.0577623, Final residual = 2.39062e-13, No Iterations 1
DILUPBiCGStab:  Solving for f17.air.bubbles, Initial residual = 0.000534045, Final residual = 5.3514e-15, No Iterations 1
DILUPBiCGStab:  Solving for f18.air.bubbles, Initial residual = 0.000718229, Final residual = 9.87101e-16, No Iterations 1
DILUPBiCGStab:  Solving for f19.air.bubbles, Initial residual = 0.00196325, Final residual = 2.39933e-15, No Iterations 1
DILUPBiCGStab:  Solving for f20.air.bubbles, Initial residual = 0.00579358, Final residual = 7.07393e-15, No Iterations 1
DILUPBiCGStab:  Solving for f21.air.bubbles, Initial residual = 1, Final residual = 1.24979e-12, No Iterations 1
air Sauter mean diameter, min, max = 0.00292854 0.00292713 0.00293423
air sizeGroups-sum volume fraction, min, max = 1 1 1.00003
bubbles sizeGroup phase fraction first, last = 3.94568e-07 1.32854e-15
Constructing momentum equations
smoothSolver:  Solving for e.air, Initial residual = 2.41236e-06, Final residual = 4.80522e-14, No Iterations 1
smoothSolver:  Solving for e.water, Initial residual = 1.13796e-10, Final residual = 8.68892e-16, No Iterations 1
GAMG:  Solving for p_rgh, Initial residual = 1.02665e-06, Final residual = 7.34107e-09, No Iterations 1
ExecutionTime = 1.63 s


fieldAverage fieldAverage1 write:
    Calculating averages

Courant Number mean: 0.000163388 max: 0.000449621
Max Ur Courant Number = 0.00658661
deltaT = 7.43008e-05
Time = 0.000385805

PIMPLE: Iteration 1
MULES: Solving for alpha.air
MULES: Solving for alpha.air
alpha.air volume fraction = 0.293356  Min(alpha1) = 1.84527e-178  Max(alpha1) = 1
Constructing momentum equations
smoothSolver:  Solving for e.air, Initial residual = 5.02311e-05, Final residual = 2.86476e-12, No Iterations 1
smoothSolver:  Solving for e.water, Initial residual = 1.39449e-08, Final residual = 1.02192e-15, No Iterations 1
GAMG:  Solving for p_rgh, Initial residual = 0.000107369, Final residual = 7.26716e-09, No Iterations 6
PIMPLE: Iteration 2
MULES: Solving for alpha.air
MULES: Solving for alpha.air
alpha.air volume fraction = 0.293356  Min(alpha1) = 1.72465e-175  Max(alpha1) = 1
Constructing momentum equations
smoothSolver:  Solving for e.air, Initial residual = 2.2436e-05, Final residual = 8.46983e-13, No Iterations 1
smoothSolver:  Solving for e.water, Initial residual = 4.85545e-09, Final residual = 1.02287e-15, No Iterations 1
GAMG:  Solving for p_rgh, Initial residual = 7.81269e-06, Final residual = 7.30731e-09, No Iterations 2
PIMPLE: Iteration 3
MULES: Solving for alpha.air
MULES: Solving for alpha.air
alpha.air volume fraction = 0.293356  Min(alpha1) = 7.5287e-174  Max(alpha1) = 1
populationBalance bubbles: Iteration 1
DILUPBiCGStab:  Solving for f0.air.bubbles, Initial residual = 0.149302, Final residual = 2.31025e-13, No Iterations 1
DILUPBiCGStab:  Solving for f1.air.bubbles, Initial residual = 0.149196, Final residual = 2.30121e-13, No Iterations 1
DILUPBiCGStab:  Solving for f2.air.bubbles, Initial residual = 0.149169, Final residual = 2.3054e-13, No Iterations 1
DILUPBiCGStab:  Solving for f3.air.bubbles, Initial residual = 0.149065, Final residual = 2.31554e-13, No Iterations 1
DILUPBiCGStab:  Solving for f4.air.bubbles, Initial residual = 0.148936, Final residual = 2.29633e-13, No Iterations 1
DILUPBiCGStab:  Solving for f5.air.bubbles, Initial residual = 0.14887, Final residual = 2.3057e-13, No Iterations 1
DILUPBiCGStab:  Solving for f6.air.bubbles, Initial residual = 0.148747, Final residual = 2.30435e-13, No Iterations 1
DILUPBiCGStab:  Solving for f7.air.bubbles, Initial residual = 0.148645, Final residual = 2.30208e-13, No Iterations 1
DILUPBiCGStab:  Solving for f8.air.bubbles, Initial residual = 0.14854, Final residual = 2.29919e-13, No Iterations 1
DILUPBiCGStab:  Solving for f9.air.bubbles, Initial residual = 0.148587, Final residual = 2.30007e-13, No Iterations 1
DILUPBiCGStab:  Solving for f10.air.bubbles, Initial residual = 0.152255, Final residual = 2.35483e-13, No Iterations 1
DILUPBiCGStab:  Solving for f11.air.bubbles, Initial residual = 0.172503, Final residual = 2.6666e-13, No Iterations 1
DILUPBiCGStab:  Solving for f12.air.bubbles, Initial residual = 0.255067, Final residual = 3.9545e-13, No Iterations 1
DILUPBiCGStab:  Solving for f13.air.bubbles, Initial residual = 0.0847601, Final residual = 1.49465e-13, No Iterations 1
DILUPBiCGStab:  Solving for f14.air.bubbles, Initial residual = 0.466955, Final residual = 7.31137e-13, No Iterations 1
DILUPBiCGStab:  Solving for f15.air.bubbles, Initial residual = 0.0991821, Final residual = 1.49854e-13, No Iterations 1
DILUPBiCGStab:  Solving for f16.air.bubbles, Initial residual = 0.0464805, Final residual = 8.25495e-14, No Iterations 1
DILUPBiCGStab:  Solving for f17.air.bubbles, Initial residual = 0.000674015, Final residual = 2.92377e-15, No Iterations 1
DILUPBiCGStab:  Solving for f18.air.bubbles, Initial residual = 0.000163134, Final residual = 3.74513e-16, No Iterations 1
DILUPBiCGStab:  Solving for f19.air.bubbles, Initial residual = 0.000811643, Final residual = 1.7432e-15, No Iterations 1
DILUPBiCGStab:  Solving for f20.air.bubbles, Initial residual = 0.00218823, Final residual = 4.69877e-15, No Iterations 1
DILUPBiCGStab:  Solving for f21.air.bubbles, Initial residual = 0.00636995, Final residual = 1.38883e-14, No Iterations 1
air Sauter mean diameter, min, max = 0.00292865 0.00292671 0.00295064
air sizeGroups-sum volume fraction, min, max = 1 1 1.00004
bubbles sizeGroup phase fraction first, last = 4.89334e-07 4.35407e-15
Constructing momentum equations
smoothSolver:  Solving for e.air, Initial residual = 2.73365e-06, Final residual = 9.31421e-14, No Iterations 1
smoothSolver:  Solving for e.water, Initial residual = 2.20687e-10, Final residual = 1.00725e-15, No Iterations 1
GAMG:  Solving for p_rgh, Initial residual = 1.04866e-06, Final residual = 8.24668e-10, No Iterations 2
ExecutionTime = 1.78 s


fieldAverage fieldAverage1 write:
    Calculating averages

Courant Number mean: 0.000201106 max: 0.000530546
Max Ur Courant Number = 0.00722592
deltaT = 8.9161e-05
Time = 0.000474966

PIMPLE: Iteration 1
MULES: Solving for alpha.air
MULES: Solving for alpha.air
alpha.air volume fraction = 0.293361  Min(alpha1) = 1.21241e-172  Max(alpha1) = 1
Constructing momentum equations
smoothSolver:  Solving for e.air, Initial residual = 5.97614e-05, Final residual = 2.56902e-12, No Iterations 1
smoothSolver:  Solving for e.water, Initial residual = 1.63539e-08, Final residual = 1.2231e-15, No Iterations 1
GAMG:  Solving for p_rgh, Initial residual = 0.000120966, Final residual = 4.90274e-09, No Iterations 7
PIMPLE: Iteration 2
MULES: Solving for alpha.air
MULES: Solving for alpha.air
alpha.air volume fraction = 0.29336  Min(alpha1) = 1.22033e-172  Max(alpha1) = 1
Constructing momentum equations
smoothSolver:  Solving for e.air, Initial residual = 2.82278e-05, Final residual = 1.07486e-12, No Iterations 1
smoothSolver:  Solving for e.water, Initial residual = 1.00593e-06, Final residual = 4.03057e-14, No Iterations 1
GAMG:  Solving for p_rgh, Initial residual = 8.72311e-06, Final residual = 9.50294e-09, No Iterations 3
PIMPLE: Iteration 3
MULES: Solving for alpha.air
MULES: Solving for alpha.air
alpha.air volume fraction = 0.29336  Min(alpha1) = 1.50443e-172  Max(alpha1) = 1
populationBalance bubbles: Iteration 1
DILUPBiCGStab:  Solving for f0.air.bubbles, Initial residual = 0.145331, Final residual = 8.29459e-14, No Iterations 1
DILUPBiCGStab:  Solving for f1.air.bubbles, Initial residual = 0.14525, Final residual = 8.28967e-14, No Iterations 1
DILUPBiCGStab:  Solving for f2.air.bubbles, Initial residual = 0.145251, Final residual = 8.29416e-14, No Iterations 1
DILUPBiCGStab:  Solving for f3.air.bubbles, Initial residual = 0.14513, Final residual = 8.28956e-14, No Iterations 1
DILUPBiCGStab:  Solving for f4.air.bubbles, Initial residual = 0.144958, Final residual = 8.27301e-14, No Iterations 1
DILUPBiCGStab:  Solving for f5.air.bubbles, Initial residual = 0.144899, Final residual = 8.27246e-14, No Iterations 1
DILUPBiCGStab:  Solving for f6.air.bubbles, Initial residual = 0.144741, Final residual = 8.26231e-14, No Iterations 1
DILUPBiCGStab:  Solving for f7.air.bubbles, Initial residual = 0.14462, Final residual = 8.25986e-14, No Iterations 1
DILUPBiCGStab:  Solving for f8.air.bubbles, Initial residual = 0.144494, Final residual = 8.24785e-14, No Iterations 1
DILUPBiCGStab:  Solving for f9.air.bubbles, Initial residual = 0.144467, Final residual = 8.25155e-14, No Iterations 1
DILUPBiCGStab:  Solving for f10.air.bubbles, Initial residual = 0.146771, Final residual = 8.3823e-14, No Iterations 1
DILUPBiCGStab:  Solving for f11.air.bubbles, Initial residual = 0.159164, Final residual = 9.10601e-14, No Iterations 1
DILUPBiCGStab:  Solving for f12.air.bubbles, Initial residual = 0.203733, Final residual = 1.16714e-13, No Iterations 1
DILUPBiCGStab:  Solving for f13.air.bubbles, Initial residual = 0.0483566, Final residual = 5.40788e-14, No Iterations 1
DILUPBiCGStab:  Solving for f14.air.bubbles, Initial residual = 0.510056, Final residual = 3.24031e-13, No Iterations 1
DILUPBiCGStab:  Solving for f15.air.bubbles, Initial residual = 0.0789723, Final residual = 4.93228e-14, No Iterations 1
DILUPBiCGStab:  Solving for f16.air.bubbles, Initial residual = 0.0321049, Final residual = 3.87339e-14, No Iterations 1
DILUPBiCGStab:  Solving for f17.air.bubbles, Initial residual = 0.000654711, Final residual = 3.98988e-14, No Iterations 1
DILUPBiCGStab:  Solving for f18.air.bubbles, Initial residual = 0.000356955, Final residual = 2.53852e-14, No Iterations 1
DILUPBiCGStab:  Solving for f19.air.bubbles, Initial residual = 3.3195e-05, Final residual = 1.4716e-15, No Iterations 1
DILUPBiCGStab:  Solving for f20.air.bubbles, Initial residual = 0.000667583, Final residual = 2.52475e-15, No Iterations 1
DILUPBiCGStab:  Solving for f21.air.bubbles, Initial residual = 0.00200681, Final residual = 7.4865e-15, No Iterations 1
air Sauter mean diameter, min, max = 0.00292861 0.0029262 0.00295903
air sizeGroups-sum volume fraction, min, max = 1 1 1.00005
bubbles sizeGroup phase fraction first, last = 6.03397e-07 7.64625e-15
Constructing momentum equations
smoothSolver:  Solving for e.air, Initial residual = 1.13541e-05, Final residual = 1.8773e-12, No Iterations 1
smoothSolver:  Solving for e.water, Initial residual = 2.10879e-10, Final residual = 1.2607e-15, No Iterations 1
GAMG:  Solving for p_rgh, Initial residual = 3.07486e-06, Final residual = 2.32809e-09, No Iterations 3
ExecutionTime = 1.94 s


fieldAverage fieldAverage1 write:
    Calculating averages

Courant Number mean: 0.000256209 max: 0.000601746
Max Ur Courant Number = 0.00818189
deltaT = 0.000106993
Time = 0.000581959

PIMPLE: Iteration 1
MULES: Solving for alpha.air
MULES: Solving for alpha.air
alpha.air volume fraction = 0.293366  Min(alpha1) = 4.13363e-172  Max(alpha1) = 1
Constructing momentum equations
smoothSolver:  Solving for e.air, Initial residual = 8.10813e-05, Final residual = 5.47469e-12, No Iterations 1
smoothSolver:  Solving for e.water, Initial residual = 2.04565e-08, Final residual = 1.05007e-15, No Iterations 1
GAMG:  Solving for p_rgh, Initial residual = 0.000114747, Final residual = 5.19912e-09, No Iterations 9
PIMPLE: Iteration 2
MULES: Solving for alpha.air
MULES: Solving for alpha.air
alpha.air volume fraction = 0.293364  Min(alpha1) = 3.14289e-171  Max(alpha1) = 1
Constructing momentum equations
smoothSolver:  Solving for e.air, Initial residual = 5.75301e-05, Final residual = 6.22419e-12, No Iterations 1
smoothSolver:  Solving for e.water, Initial residual = 1.16672e-08, Final residual = 1.12855e-15, No Iterations 1
GAMG:  Solving for p_rgh, Initial residual = 1.39875e-05, Final residual = 5.03294e-09, No Iterations 4
PIMPLE: Iteration 3
MULES: Solving for alpha.air
MULES: Solving for alpha.air
alpha.air volume fraction = 0.293364  Min(alpha1) = 4.42655e-170  Max(alpha1) = 1
populationBalance bubbles: Iteration 1
DILUPBiCGStab:  Solving for f0.air.bubbles, Initial residual = 0.14243, Final residual = 3.68777e-13, No Iterations 1
DILUPBiCGStab:  Solving for f1.air.bubbles, Initial residual = 0.142287, Final residual = 3.68202e-13, No Iterations 1
DILUPBiCGStab:  Solving for f2.air.bubbles, Initial residual = 0.14227, Final residual = 3.6831e-13, No Iterations 1
DILUPBiCGStab:  Solving for f3.air.bubbles, Initial residual = 0.142121, Final residual = 3.67924e-13, No Iterations 1
DILUPBiCGStab:  Solving for f4.air.bubbles, Initial residual = 0.141929, Final residual = 3.67252e-13, No Iterations 1
DILUPBiCGStab:  Solving for f5.air.bubbles, Initial residual = 0.141844, Final residual = 3.67232e-13, No Iterations 1
DILUPBiCGStab:  Solving for f6.air.bubbles, Initial residual = 0.14166, Final residual = 3.6667e-13, No Iterations 1
DILUPBiCGStab:  Solving for f7.air.bubbles, Initial residual = 0.141515, Final residual = 3.66351e-13, No Iterations 1
DILUPBiCGStab:  Solving for f8.air.bubbles, Initial residual = 0.141363, Final residual = 3.65936e-13, No Iterations 1
DILUPBiCGStab:  Solving for f9.air.bubbles, Initial residual = 0.141279, Final residual = 3.6565e-13, No Iterations 1
DILUPBiCGStab:  Solving for f10.air.bubbles, Initial residual = 0.142763, Final residual = 3.69467e-13, No Iterations 1
DILUPBiCGStab:  Solving for f11.air.bubbles, Initial residual = 0.150853, Final residual = 3.90692e-13, No Iterations 1
DILUPBiCGStab:  Solving for f12.air.bubbles, Initial residual = 0.185242, Final residual = 5.22046e-13, No Iterations 1
DILUPBiCGStab:  Solving for f13.air.bubbles, Initial residual = 0.0541475, Final residual = 3.18615e-13, No Iterations 1
DILUPBiCGStab:  Solving for f14.air.bubbles, Initial residual = 0.405613, Final residual = 1.2667e-12, No Iterations 1
DILUPBiCGStab:  Solving for f15.air.bubbles, Initial residual = 0.081456, Final residual = 1.79561e-13, No Iterations 1
DILUPBiCGStab:  Solving for f16.air.bubbles, Initial residual = 0.0316076, Final residual = 2.17031e-13, No Iterations 1
DILUPBiCGStab:  Solving for f17.air.bubbles, Initial residual = 0.000661921, Final residual = 7.33573e-14, No Iterations 1
DILUPBiCGStab:  Solving for f18.air.bubbles, Initial residual = 0.000396582, Final residual = 5.43217e-14, No Iterations 1
DILUPBiCGStab:  Solving for f19.air.bubbles, Initial residual = 0.000422213, Final residual = 4.52402e-14, No Iterations 1
DILUPBiCGStab:  Solving for f20.air.bubbles, Initial residual = 5.39289e-05, Final residual = 3.84495e-15, No Iterations 1
DILUPBiCGStab:  Solving for f21.air.bubbles, Initial residual = 0.000628644, Final residual = 4.14086e-15, No Iterations 1
air Sauter mean diameter, min, max = 0.00292845 0.0029256 0.00296069
air sizeGroups-sum volume fraction, min, max = 1 1 1.00005
bubbles sizeGroup phase fraction first, last = 7.4082e-07 1.04229e-14
Constructing momentum equations
smoothSolver:  Solving for e.air, Initial residual = 1.5224e-05, Final residual = 1.65032e-12, No Iterations 1
smoothSolver:  Solving for e.water, Initial residual = 2.33236e-10, Final residual = 9.01237e-16, No Iterations 1
GAMG:  Solving for p_rgh, Initial residual = 3.40691e-06, Final residual = 9.91695e-09, No Iterations 2
ExecutionTime = 2.1 s


fieldAverage fieldAverage1 write:
    Calculating averages

Courant Number mean: 0.000338108 max: 0.000603135
Max Ur Courant Number = 0.0114111
deltaT = 0.000128392
Time = 0.000710351

PIMPLE: Iteration 1
MULES: Solving for alpha.air
MULES: Solving for alpha.air
alpha.air volume fraction = 0.293368  Min(alpha1) = 6.19107e-169  Max(alpha1) = 1
Constructing momentum equations
smoothSolver:  Solving for e.air, Initial residual = 0.000166714, Final residual = 2.58937e-11, No Iterations 1
smoothSolver:  Solving for e.water, Initial residual = 2.51682e-08, Final residual = 1.16822e-15, No Iterations 1
GAMG:  Solving for p_rgh, Initial residual = 0.000110472, Final residual = 6.26568e-09, No Iterations 11
PIMPLE: Iteration 2
MULES: Solving for alpha.air
MULES: Solving for alpha.air
alpha.air volume fraction = 0.293365  Min(alpha1) = 5.72203e-168  Max(alpha1) = 1
Constructing momentum equations
smoothSolver:  Solving for e.air, Initial residual = 9.8508e-05, Final residual = 1.08624e-11, No Iterations 1
smoothSolver:  Solving for e.water, Initial residual = 1.24786e-08, Final residual = 1.11297e-15, No Iterations 1
GAMG:  Solving for p_rgh, Initial residual = 1.88979e-05, Final residual = 3.62841e-09, No Iterations 5
PIMPLE: Iteration 3
MULES: Solving for alpha.air
MULES: Solving for alpha.air
alpha.air volume fraction = 0.293365  Min(alpha1) = 2.54028e-167  Max(alpha1) = 1
populationBalance bubbles: Iteration 1
DILUPBiCGStab:  Solving for f0.air.bubbles, Initial residual = 0.140419, Final residual = 1.58704e-12, No Iterations 1
DILUPBiCGStab:  Solving for f1.air.bubbles, Initial residual = 0.14011, Final residual = 1.57941e-12, No Iterations 1
DILUPBiCGStab:  Solving for f2.air.bubbles, Initial residual = 0.140053, Final residual = 1.58185e-12, No Iterations 1
DILUPBiCGStab:  Solving for f3.air.bubbles, Initial residual = 0.13986, Final residual = 1.57996e-12, No Iterations 1
DILUPBiCGStab:  Solving for f4.air.bubbles, Initial residual = 0.139665, Final residual = 1.5766e-12, No Iterations 1
DILUPBiCGStab:  Solving for f5.air.bubbles, Initial residual = 0.139528, Final residual = 1.5766e-12, No Iterations 1
DILUPBiCGStab:  Solving for f6.air.bubbles, Initial residual = 0.139323, Final residual = 1.57345e-12, No Iterations 1
DILUPBiCGStab:  Solving for f7.air.bubbles, Initial residual = 0.139146, Final residual = 1.57156e-12, No Iterations 1
DILUPBiCGStab:  Solving for f8.air.bubbles, Initial residual = 0.138964, Final residual = 1.56939e-12, No Iterations 1
DILUPBiCGStab:  Solving for f9.air.bubbles, Initial residual = 0.138831, Final residual = 1.56789e-12, No Iterations 1
DILUPBiCGStab:  Solving for f10.air.bubbles, Initial residual = 0.139804, Final residual = 1.57876e-12, No Iterations 1
DILUPBiCGStab:  Solving for f11.air.bubbles, Initial residual = 0.145357, Final residual = 1.64208e-12, No Iterations 1
DILUPBiCGStab:  Solving for f12.air.bubbles, Initial residual = 0.181296, Final residual = 2.52853e-12, No Iterations 1
DILUPBiCGStab:  Solving for f13.air.bubbles, Initial residual = 0.0829627, Final residual = 3.74272e-12, No Iterations 1
DILUPBiCGStab:  Solving for f14.air.bubbles, Initial residual = 0.309743, Final residual = 5.99951e-12, No Iterations 1
DILUPBiCGStab:  Solving for f15.air.bubbles, Initial residual = 0.105571, Final residual = 1.05189e-12, No Iterations 1
DILUPBiCGStab:  Solving for f16.air.bubbles, Initial residual = 0.036777, Final residual = 1.98329e-12, No Iterations 1
DILUPBiCGStab:  Solving for f17.air.bubbles, Initial residual = 0.00101116, Final residual = 7.69536e-14, No Iterations 1
DILUPBiCGStab:  Solving for f18.air.bubbles, Initial residual = 0.000173179, Final residual = 4.95335e-15, No Iterations 1
DILUPBiCGStab:  Solving for f19.air.bubbles, Initial residual = 0.000838723, Final residual = 8.72907e-15, No Iterations 1
DILUPBiCGStab:  Solving for f20.air.bubbles, Initial residual = 0.0023241, Final residual = 2.35204e-14, No Iterations 1
DILUPBiCGStab:  Solving for f21.air.bubbles, Initial residual = 0.00458559, Final residual = 4.72032e-14, No Iterations 1
air Sauter mean diameter, min, max = 0.00292824 0.00292487 0.00295994
air sizeGroups-sum volume fraction, min, max = 1 1 1.00005
bubbles sizeGroup phase fraction first, last = 9.06637e-07 2.17999e-14
Constructing momentum equations
smoothSolver:  Solving for e.air, Initial residual = 2.08574e-05, Final residual = 3.58874e-12, No Iterations 1
smoothSolver:  Solving for e.water, Initial residual = 3.80078e-10, Final residual = 8.85671e-16, No Iterations 1
GAMG:  Solving for p_rgh, Initial residual = 3.8085e-06, Final residual = 4.98172e-09, No Iterations 3
ExecutionTime = 2.26 s


fieldAverage fieldAverage1 write:
    Calculating averages

Courant Number mean: 0.000477204 max: 0.000746872
Max Ur Courant Number = 0.0135153
deltaT = 0.00015407
Time = 0.000864421

PIMPLE: Iteration 1
MULES: Solving for alpha.air
MULES: Solving for alpha.air
alpha.air volume fraction = 0.293366  Min(alpha1) = 1.24319e-166  Max(alpha1) = 1
Constructing momentum equations
smoothSolver:  Solving for e.air, Initial residual = 0.000391494, Final residual = 9.67381e-11, No Iterations 1
smoothSolver:  Solving for e.water, Initial residual = 4.82079e-08, Final residual = 1.73856e-15, No Iterations 1
GAMG:  Solving for p_rgh, Initial residual = 0.000107589, Final residual = 9.10734e-09, No Iterations 13
PIMPLE: Iteration 2
MULES: Solving for alpha.air
MULES: Solving for alpha.air
alpha.air volume fraction = 0.293362  Min(alpha1) = 3.76495e-166  Max(alpha1) = 1
Constructing momentum equations
smoothSolver:  Solving for e.air, Initial residual = 0.000151397, Final residual = 2.59352e-11, No Iterations 1
smoothSolver:  Solving for e.water, Initial residual = 1.53415e-08, Final residual = 1.44686e-15, No Iterations 1
GAMG:  Solving for p_rgh, Initial residual = 2.46212e-05, Final residual = 9.00171e-09, No Iterations 6
PIMPLE: Iteration 3
MULES: Solving for alpha.air
MULES: Solving for alpha.air
alpha.air volume fraction = 0.293362  Min(alpha1) = 6.83212e-166  Max(alpha1) = 1
populationBalance bubbles: Iteration 1
DILUPBiCGStab:  Solving for f0.air.bubbles, Initial residual = 0.139149, Final residual = 4.38181e-12, No Iterations 1
DILUPBiCGStab:  Solving for f1.air.bubbles, Initial residual = 0.13851, Final residual = 4.35265e-12, No Iterations 1
DILUPBiCGStab:  Solving for f2.air.bubbles, Initial residual = 0.138429, Final residual = 4.37367e-12, No Iterations 1
DILUPBiCGStab:  Solving for f3.air.bubbles, Initial residual = 0.138167, Final residual = 4.3665e-12, No Iterations 1
DILUPBiCGStab:  Solving for f4.air.bubbles, Initial residual = 0.137979, Final residual = 4.34985e-12, No Iterations 1
DILUPBiCGStab:  Solving for f5.air.bubbles, Initial residual = 0.137782, Final residual = 4.35686e-12, No Iterations 1
DILUPBiCGStab:  Solving for f6.air.bubbles, Initial residual = 0.137547, Final residual = 4.34311e-12, No Iterations 1
DILUPBiCGStab:  Solving for f7.air.bubbles, Initial residual = 0.137334, Final residual = 4.33748e-12, No Iterations 1
DILUPBiCGStab:  Solving for f8.air.bubbles, Initial residual = 0.137116, Final residual = 4.33029e-12, No Iterations 1
DILUPBiCGStab:  Solving for f9.air.bubbles, Initial residual = 0.136934, Final residual = 4.32397e-12, No Iterations 1
DILUPBiCGStab:  Solving for f10.air.bubbles, Initial residual = 0.137554, Final residual = 4.34296e-12, No Iterations 1
DILUPBiCGStab:  Solving for f11.air.bubbles, Initial residual = 0.141509, Final residual = 4.47211e-12, No Iterations 1
DILUPBiCGStab:  Solving for f12.air.bubbles, Initial residual = 0.187131, Final residual = 7.16444e-12, No Iterations 1
DILUPBiCGStab:  Solving for f13.air.bubbles, Initial residual = 0.139469, Final residual = 1.81817e-11, No Iterations 1
DILUPBiCGStab:  Solving for f14.air.bubbles, Initial residual = 0.27587, Final residual = 1.84076e-11, No Iterations 1
DILUPBiCGStab:  Solving for f15.air.bubbles, Initial residual = 0.140111, Final residual = 7.70893e-12, No Iterations 1
DILUPBiCGStab:  Solving for f16.air.bubbles, Initial residual = 0.0580766, Final residual = 1.21795e-11, No Iterations 1
DILUPBiCGStab:  Solving for f17.air.bubbles, Initial residual = 0.00581028, Final residual = 9.8602e-13, No Iterations 1
DILUPBiCGStab:  Solving for f18.air.bubbles, Initial residual = 0.0033021, Final residual = 1.1052e-13, No Iterations 1
DILUPBiCGStab:  Solving for f19.air.bubbles, Initial residual = 0.00793763, Final residual = 1.26526e-13, No Iterations 1
DILUPBiCGStab:  Solving for f20.air.bubbles, Initial residual = 0.0152464, Final residual = 2.35516e-13, No Iterations 1
DILUPBiCGStab:  Solving for f21.air.bubbles, Initial residual = 0.024375, Final residual = 4.09307e-13, No Iterations 1
air Sauter mean diameter, min, max = 0.00292815 0.00292381 0.00295801
air sizeGroups-sum volume fraction, min, max = 1 1 1.00005
bubbles sizeGroup phase fraction first, last = 1.10716e-06 1.14574e-13
Constructing momentum equations
smoothSolver:  Solving for e.air, Initial residual = 1.66628e-05, Final residual = 7.75401e-12, No Iterations 1
smoothSolver:  Solving for e.water, Initial residual = 1.03401e-09, Final residual = 1.10864e-15, No Iterations 1
GAMG:  Solving for p_rgh, Initial residual = 2.77318e-06, Final residual = 3.26944e-09, No Iterations 4
ExecutionTime = 2.42 s


fieldAverage fieldAverage1 write:
    Calculating averages

Courant Number mean: 0.000734143 max: 0.0019246
Max Ur Courant Number = 0.0158115
deltaT = 0.000184884
Time = 0.00104931

PIMPLE: Iteration 1
MULES: Solving for alpha.air
MULES: Solving for alpha.air
alpha.air volume fraction = 0.293359  Min(alpha1) = 9.5485e-166  Max(alpha1) = 1
Constructing momentum equations
smoothSolver:  Solving for e.air, Initial residual = 0.000886549, Final residual = 3.63941e-10, No Iterations 1
smoothSolver:  Solving for e.water, Initial residual = 9.97466e-08, Final residual = 2.6762e-15, No Iterations 1
GAMG:  Solving for p_rgh, Initial residual = 0.000188371, Final residual = 9.20444e-09, No Iterations 16
PIMPLE: Iteration 2
MULES: Solving for alpha.air
MULES: Solving for alpha.air
alpha.air volume fraction = 0.293356  Min(alpha1) = 9.90837e-166  Max(alpha1) = 1
Constructing momentum equations
smoothSolver:  Solving for e.air, Initial residual = 0.000201108, Final residual = 1.80976e-10, No Iterations 1
smoothSolver:  Solving for e.water, Initial residual = 1.94181e-08, Final residual = 1.51816e-15, No Iterations 1
GAMG:  Solving for p_rgh, Initial residual = 3.27401e-05, Final residual = 6.83417e-09, No Iterations 9
PIMPLE: Iteration 3
MULES: Solving for alpha.air
MULES: Solving for alpha.air
alpha.air volume fraction = 0.293356  Min(alpha1) = 9.98681e-166  Max(alpha1) = 1
populationBalance bubbles: Iteration 1
DILUPBiCGStab:  Solving for f0.air.bubbles, Initial residual = 0.138418, Final residual = 1.02919e-11, No Iterations 1
DILUPBiCGStab:  Solving for f1.air.bubbles, Initial residual = 0.137269, Final residual = 1.01985e-11, No Iterations 1
DILUPBiCGStab:  Solving for f2.air.bubbles, Initial residual = 0.137229, Final residual = 1.02852e-11, No Iterations 1
DILUPBiCGStab:  Solving for f3.air.bubbles, Initial residual = 0.136873, Final residual = 1.02669e-11, No Iterations 1
DILUPBiCGStab:  Solving for f4.air.bubbles, Initial residual = 0.136684, Final residual = 1.02075e-11, No Iterations 1
DILUPBiCGStab:  Solving for f5.air.bubbles, Initial residual = 0.136439, Final residual = 1.02417e-11, No Iterations 1
DILUPBiCGStab:  Solving for f6.air.bubbles, Initial residual = 0.136153, Final residual = 1.01956e-11, No Iterations 1
DILUPBiCGStab:  Solving for f7.air.bubbles, Initial residual = 0.1359, Final residual = 1.01809e-11, No Iterations 1
DILUPBiCGStab:  Solving for f8.air.bubbles, Initial residual = 0.135637, Final residual = 1.01599e-11, No Iterations 1
DILUPBiCGStab:  Solving for f9.air.bubbles, Initial residual = 0.1354, Final residual = 1.01404e-11, No Iterations 1
DILUPBiCGStab:  Solving for f10.air.bubbles, Initial residual = 0.135736, Final residual = 1.01635e-11, No Iterations 1
DILUPBiCGStab:  Solving for f11.air.bubbles, Initial residual = 0.138587, Final residual = 1.03981e-11, No Iterations 1
DILUPBiCGStab:  Solving for f12.air.bubbles, Initial residual = 0.195749, Final residual = 1.68036e-11, No Iterations 1
DILUPBiCGStab:  Solving for f13.air.bubbles, Initial residual = 0.172204, Final residual = 3.64588e-11, No Iterations 1
DILUPBiCGStab:  Solving for f14.air.bubbles, Initial residual = 0.298625, Final residual = 4.43256e-11, No Iterations 1
DILUPBiCGStab:  Solving for f15.air.bubbles, Initial residual = 0.154665, Final residual = 2.02951e-11, No Iterations 1
DILUPBiCGStab:  Solving for f16.air.bubbles, Initial residual = 0.0862779, Final residual = 2.93761e-11, No Iterations 1
DILUPBiCGStab:  Solving for f17.air.bubbles, Initial residual = 0.0271863, Final residual = 6.68136e-12, No Iterations 1
DILUPBiCGStab:  Solving for f18.air.bubbles, Initial residual = 0.0158538, Final residual = 9.57411e-13, No Iterations 1
DILUPBiCGStab:  Solving for f19.air.bubbles, Initial residual = 0.0269209, Final residual = 6.12296e-13, No Iterations 1
DILUPBiCGStab:  Solving for f20.air.bubbles, Initial residual = 0.0426517, Final residual = 9.13671e-13, No Iterations 1
DILUPBiCGStab:  Solving for f21.air.bubbles, Initial residual = 0.0612469, Final residual = 1.67841e-12, No Iterations 1
air Sauter mean diameter, min, max = 0.00292851 0.00292246 0.00297226
air sizeGroups-sum volume fraction, min, max = 1 1 1.00012
bubbles sizeGroup phase fraction first, last = 1.35022e-06 1.18756e-12
Constructing momentum equations
smoothSolver:  Solving for e.air, Initial residual = 3.24053e-05, Final residual = 2.54882e-11, No Iterations 1
smoothSolver:  Solving for e.water, Initial residual = 3.1815e-09, Final residual = 9.03135e-16, No Iterations 1
GAMG:  Solving for p_rgh, Initial residual = 5.38392e-06, Final residual = 4.69054e-09, No Iterations 4
ExecutionTime = 2.59 s


fieldAverage fieldAverage1 write:
    Calculating averages

Courant Number mean: 0.00122349 max: 0.00401214
Max Ur Courant Number = 0.0169457
deltaT = 0.000221861
Time = 0.00127117

PIMPLE: Iteration 1
MULES: Solving for alpha.air
MULES: Solving for alpha.air
alpha.air volume fraction = 0.29335  Min(alpha1) = 1.12756e-165  Max(alpha1) = 1
Constructing momentum equations
smoothSolver:  Solving for e.air, Initial residual = 0.00177883, Final residual = 1.45933e-09, No Iterations 1
smoothSolver:  Solving for e.water, Initial residual = 1.90847e-07, Final residual = 4.78484e-15, No Iterations 1
GAMG:  Solving for p_rgh, Initial residual = 0.000308844, Final residual = 9.03034e-09, No Iterations 17
PIMPLE: Iteration 2
MULES: Solving for alpha.air
MULES: Solving for alpha.air
alpha.air volume fraction = 0.29335  Min(alpha1) = 1.20764e-165  Max(alpha1) = 1
Constructing momentum equations
smoothSolver:  Solving for e.air, Initial residual = 0.00029164, Final residual = 7.3789e-10, No Iterations 1
smoothSolver:  Solving for e.water, Initial residual = 3.69355e-08, Final residual = 2.46344e-15, No Iterations 1
GAMG:  Solving for p_rgh, Initial residual = 4.84188e-05, Final residual = 8.52675e-09, No Iterations 9
PIMPLE: Iteration 3
MULES: Solving for alpha.air
MULES: Solving for alpha.air
alpha.air volume fraction = 0.29335  Min(alpha1) = 1.45341e-165  Max(alpha1) = 1
populationBalance bubbles: Iteration 1
DILUPBiCGStab:  Solving for f0.air.bubbles, Initial residual = 0.137685, Final residual = 3.19282e-11, No Iterations 1
DILUPBiCGStab:  Solving for f1.air.bubbles, Initial residual = 0.13619, Final residual = 3.15989e-11, No Iterations 1
DILUPBiCGStab:  Solving for f2.air.bubbles, Initial residual = 0.136262, Final residual = 3.19132e-11, No Iterations 1
DILUPBiCGStab:  Solving for f3.air.bubbles, Initial residual = 0.135829, Final residual = 3.18516e-11, No Iterations 1
DILUPBiCGStab:  Solving for f4.air.bubbles, Initial residual = 0.135571, Final residual = 3.16314e-11, No Iterations 1
DILUPBiCGStab:  Solving for f5.air.bubbles, Initial residual = 0.13533, Final residual = 3.1753e-11, No Iterations 1
DILUPBiCGStab:  Solving for f6.air.bubbles, Initial residual = 0.134958, Final residual = 3.15852e-11, No Iterations 1
DILUPBiCGStab:  Solving for f7.air.bubbles, Initial residual = 0.134661, Final residual = 3.15293e-11, No Iterations 1
DILUPBiCGStab:  Solving for f8.air.bubbles, Initial residual = 0.134345, Final residual = 3.14505e-11, No Iterations 1
DILUPBiCGStab:  Solving for f9.air.bubbles, Initial residual = 0.134045, Final residual = 3.13738e-11, No Iterations 1
DILUPBiCGStab:  Solving for f10.air.bubbles, Initial residual = 0.13412, Final residual = 3.13843e-11, No Iterations 1
DILUPBiCGStab:  Solving for f11.air.bubbles, Initial residual = 0.136103, Final residual = 3.19163e-11, No Iterations 1
[...]
smoothSolver:  Solving for e.water, Initial residual = 3.21268e-05, Final residual = 5.26674e-15, No Iterations 1
GAMG:  Solving for p_rgh, Initial residual = 0.000169925, Final residual = 7.22097e-09, No Iterations 17
ExecutionTime = 43.98 s


fieldAverage fieldAverage1 write:
    Calculating averages

Courant Number mean: 0.104519 max: 0.504328
Max Ur Courant Number = 0.151717
deltaT = 0.00375251
Time = 2.78156

PIMPLE: Iteration 1
MULES: Solving for alpha.air
MULES: Solving for alpha.air
alpha.air volume fraction = 0.293322  Min(alpha1) = 1.76706e-05  Max(alpha1) = 1
Constructing momentum equations
smoothSolver:  Solving for e.air, Initial residual = 3.21197e-05, Final residual = 1.00951e-15, No Iterations 1
smoothSolver:  Solving for e.water, Initial residual = 3.35197e-05, Final residual = 1.16142e-14, No Iterations 1
GAMG:  Solving for p_rgh, Initial residual = 1.6543e-05, Final residual = 4.74338e-09, No Iterations 14
PIMPLE: Iteration 2
MULES: Solving for alpha.air
MULES: Solving for alpha.air
alpha.air volume fraction = 0.293322  Min(alpha1) = 1.86356e-05  Max(alpha1) = 1
Constructing momentum equations
smoothSolver:  Solving for e.air, Initial residual = 3.48003e-05, Final residual = 3.3261e-16, No Iterations 1
smoothSolver:  Solving for e.water, Initial residual = 3.61858e-05, Final residual = 3.15547e-15, No Iterations 1
GAMG:  Solving for p_rgh, Initial residual = 6.93588e-06, Final residual = 9.11611e-09, No Iterations 6
PIMPLE: Iteration 3
MULES: Solving for alpha.air
MULES: Solving for alpha.air
alpha.air volume fraction = 0.293322  Min(alpha1) = 1.9196e-05  Max(alpha1) = 1
populationBalance bubbles: Iteration 1
DILUPBiCGStab:  Solving for f0.air.bubbles, Initial residual = 0.347181, Final residual = 3.06756e-10, No Iterations 1
DILUPBiCGStab:  Solving for f1.air.bubbles, Initial residual = 0.347222, Final residual = 3.04408e-10, No Iterations 1
DILUPBiCGStab:  Solving for f2.air.bubbles, Initial residual = 0.347251, Final residual = 3.0895e-10, No Iterations 1
DILUPBiCGStab:  Solving for f3.air.bubbles, Initial residual = 0.347262, Final residual = 3.09542e-10, No Iterations 1
DILUPBiCGStab:  Solving for f4.air.bubbles, Initial residual = 0.347256, Final residual = 3.06954e-10, No Iterations 1
DILUPBiCGStab:  Solving for f5.air.bubbles, Initial residual = 0.347283, Final residual = 3.09944e-10, No Iterations 1
DILUPBiCGStab:  Solving for f6.air.bubbles, Initial residual = 0.34727, Final residual = 3.07314e-10, No Iterations 1
DILUPBiCGStab:  Solving for f7.air.bubbles, Initial residual = 0.347283, Final residual = 3.08335e-10, No Iterations 1
DILUPBiCGStab:  Solving for f8.air.bubbles, Initial residual = 0.347293, Final residual = 3.08956e-10, No Iterations 1
DILUPBiCGStab:  Solving for f9.air.bubbles, Initial residual = 0.347305, Final residual = 3.10278e-10, No Iterations 1
DILUPBiCGStab:  Solving for f10.air.bubbles, Initial residual = 0.347321, Final residual = 3.13206e-10, No Iterations 1
DILUPBiCGStab:  Solving for f11.air.bubbles, Initial residual = 0.347342, Final residual = 3.19348e-10, No Iterations 1
DILUPBiCGStab:  Solving for f12.air.bubbles, Initial residual = 0.347378, Final residual = 3.34196e-10, No Iterations 1
DILUPBiCGStab:  Solving for f13.air.bubbles, Initial residual = 0.347411, Final residual = 3.67889e-10, No Iterations 1
DILUPBiCGStab:  Solving for f14.air.bubbles, Initial residual = 0.347529, Final residual = 4.75191e-10, No Iterations 1
DILUPBiCGStab:  Solving for f15.air.bubbles, Initial residual = 0.347586, Final residual = 5.68217e-10, No Iterations 1
DILUPBiCGStab:  Solving for f16.air.bubbles, Initial residual = 0.347618, Final residual = 5.68045e-10, No Iterations 1
DILUPBiCGStab:  Solving for f17.air.bubbles, Initial residual = 0.347659, Final residual = 5.0271e-10, No Iterations 1
DILUPBiCGStab:  Solving for f18.air.bubbles, Initial residual = 0.347754, Final residual = 4.74987e-10, No Iterations 1
DILUPBiCGStab:  Solving for f19.air.bubbles, Initial residual = 0.347866, Final residual = 4.71218e-10, No Iterations 1
DILUPBiCGStab:  Solving for f20.air.bubbles, Initial residual = 0.348025, Final residual = 4.90103e-10, No Iterations 1
DILUPBiCGStab:  Solving for f21.air.bubbles, Initial residual = 0.348325, Final residual = 5.73544e-10, No Iterations 1
air Sauter mean diameter, min, max = 0.00111283 8.36974e-12 0.0029289
air sizeGroups-sum volume fraction, min, max = 159587 0.999601 1.38339e+08
bubbles sizeGroup phase fraction first, last = 193.542 4.72835e-06
Constructing momentum equations
smoothSolver:  Solving for e.air, Initial residual = 3.50829e-05, Final residual = 5.55512e-16, No Iterations 1
smoothSolver:  Solving for e.water, Initial residual = 3.65821e-05, Final residual = 5.49842e-15, No Iterations 1
GAMG:  Solving for p_rgh, Initial residual = 6.74362e-06, Final residual = 9.26742e-09, No Iterations 7
ExecutionTime = 44.15 s


fieldAverage fieldAverage1 write:
    Calculating averages

Courant Number mean: 0.104324 max: 0.504046
Max Ur Courant Number = 0.151828
deltaT = 0.00372239
Time = 2.785283

PIMPLE: Iteration 1
MULES: Solving for alpha.air
MULES: Solving for alpha.air
alpha.air volume fraction = 0.293322  Min(alpha1) = 2.25094e-05  Max(alpha1) = 1
Constructing momentum equations
smoothSolver:  Solving for e.air, Initial residual = 3.64454e-05, Final residual = 5.95054e-16, No Iterations 1
smoothSolver:  Solving for e.water, Initial residual = 3.80364e-05, Final residual = 5.55934e-15, No Iterations 1
GAMG:  Solving for p_rgh, Initial residual = 1.88758e-05, Final residual = 7.2542e-09, No Iterations 8
PIMPLE: Iteration 2
MULES: Solving for alpha.air
MULES: Solving for alpha.air
alpha.air volume fraction = 0.293322  Min(alpha1) = 2.41058e-05  Max(alpha1) = 1
Constructing momentum equations
smoothSolver:  Solving for e.air, Initial residual = 3.54719e-05, Final residual = 5.97643e-16, No Iterations 1
smoothSolver:  Solving for e.water, Initial residual = 3.68837e-05, Final residual = 5.42748e-15, No Iterations 1
GAMG:  Solving for p_rgh, Initial residual = 6.40984e-06, Final residual = 5.31266e-09, No Iterations 6
PIMPLE: Iteration 3
MULES: Solving for alpha.air
MULES: Solving for alpha.air
alpha.air volume fraction = 0.293322  Min(alpha1) = 2.43935e-05  Max(alpha1) = 1
populationBalance bubbles: Iteration 1
DILUPBiCGStab:  Solving for f0.air.bubbles, Initial residual = 0.406977, Final residual = 7.23876e-11, No Iterations 1
DILUPBiCGStab:  Solving for f1.air.bubbles, Initial residual = 0.405398, Final residual = 7.01766e-11, No Iterations 1
DILUPBiCGStab:  Solving for f2.air.bubbles, Initial residual = 0.404734, Final residual = 7.11405e-11, No Iterations 1
DILUPBiCGStab:  Solving for f3.air.bubbles, Initial residual = 0.404622, Final residual = 7.12463e-11, No Iterations 1
DILUPBiCGStab:  Solving for f4.air.bubbles, Initial residual = 0.404548, Final residual = 7.03886e-11, No Iterations 1
DILUPBiCGStab:  Solving for f5.air.bubbles, Initial residual = 0.404051, Final residual = 7.09066e-11, No Iterations 1
DILUPBiCGStab:  Solving for f6.air.bubbles, Initial residual = 0.404193, Final residual = 7.01525e-11, No Iterations 1
DILUPBiCGStab:  Solving for f7.air.bubbles, Initial residual = 0.403873, Final residual = 7.01732e-11, No Iterations 1
DILUPBiCGStab:  Solving for f8.air.bubbles, Initial residual = 0.403498, Final residual = 7.00504e-11, No Iterations 1
DILUPBiCGStab:  Solving for f9.air.bubbles, Initial residual = 0.403087, Final residual = 7.00585e-11, No Iterations 1
DILUPBiCGStab:  Solving for f10.air.bubbles, Initial residual = 0.402616, Final residual = 7.03899e-11, No Iterations 1
DILUPBiCGStab:  Solving for f11.air.bubbles, Initial residual = 0.402069, Final residual = 7.13834e-11, No Iterations 1
DILUPBiCGStab:  Solving for f12.air.bubbles, Initial residual = 0.401429, Final residual = 7.42829e-11, No Iterations 1
DILUPBiCGStab:  Solving for f13.air.bubbles, Initial residual = 0.400884, Final residual = 8.09051e-11, No Iterations 1
DILUPBiCGStab:  Solving for f14.air.bubbles, Initial residual = 0.399195, Final residual = 1.02238e-10, No Iterations 1
DILUPBiCGStab:  Solving for f15.air.bubbles, Initial residual = 0.398267, Final residual = 1.20516e-10, No Iterations 1
DILUPBiCGStab:  Solving for f16.air.bubbles, Initial residual = 0.396443, Final residual = 1.2061e-10, No Iterations 1
DILUPBiCGStab:  Solving for f17.air.bubbles, Initial residual = 0.394923, Final residual = 1.07366e-10, No Iterations 1
DILUPBiCGStab:  Solving for f18.air.bubbles, Initial residual = 0.39255, Final residual = 1.01568e-10, No Iterations 1
DILUPBiCGStab:  Solving for f19.air.bubbles, Initial residual = 0.38938, Final residual = 1.00548e-10, No Iterations 1
DILUPBiCGStab:  Solving for f20.air.bubbles, Initial residual = 0.385299, Final residual = 1.0413e-10, No Iterations 1
DILUPBiCGStab:  Solving for f21.air.bubbles, Initial residual = 0.379721, Final residual = 1.22756e-10, No Iterations 1
air Sauter mean diameter, min, max = 0.00110782 4.18487e-12 0.0029289
air sizeGroups-sum volume fraction, min, max = 259131 0.999604 2.76679e+08
bubbles sizeGroup phase fraction first, last = 373.175 8.98512e-06
Constructing momentum equations
smoothSolver:  Solving for e.air, Initial residual = 2.02697e-05, Final residual = 2.43831e-16, No Iterations 1
smoothSolver:  Solving for e.water, Initial residual = 2.11432e-05, Final residual = 3.16992e-15, No Iterations 1
GAMG:  Solving for p_rgh, Initial residual = 0.000456584, Final residual = 9.62675e-09, No Iterations 12
ExecutionTime = 44.31 s


fieldAverage fieldAverage1 write:
    Calculating averages

Courant Number mean: 0.104156 max: 0.503792
Max Ur Courant Number = 0.152074
deltaT = 0.00369437
Time = 2.788977

PIMPLE: Iteration 1
MULES: Solving for alpha.air
MULES: Solving for alpha.air
alpha.air volume fraction = 0.293322  Min(alpha1) = 2.53792e-05  Max(alpha1) = 1
Constructing momentum equations
smoothSolver:  Solving for e.air, Initial residual = 2.07623e-05, Final residual = 3.33427e-16, No Iterations 1
smoothSolver:  Solving for e.water, Initial residual = 2.16794e-05, Final residual = 6.26441e-15, No Iterations 1
GAMG:  Solving for p_rgh, Initial residual = 2.0759e-05, Final residual = 5.30251e-09, No Iterations 13
PIMPLE: Iteration 2
MULES: Solving for alpha.air
MULES: Solving for alpha.air
alpha.air volume fraction = 0.293322  Min(alpha1) = 2.60452e-05  Max(alpha1) = 1
Constructing momentum equations
smoothSolver:  Solving for e.air, Initial residual = 2.07155e-05, Final residual = 1.89592e-16, No Iterations 1
smoothSolver:  Solving for e.water, Initial residual = 2.15546e-05, Final residual = 2.72528e-15, No Iterations 1
GAMG:  Solving for p_rgh, Initial residual = 7.28183e-06, Final residual = 7.1698e-09, No Iterations 9
PIMPLE: Iteration 3
MULES: Solving for alpha.air
MULES: Solving for alpha.air
alpha.air volume fraction = 0.293322  Min(alpha1) = 2.62837e-05  Max(alpha1) = 1
populationBalance bubbles: Iteration 1
DILUPBiCGStab:  Solving for f0.air.bubbles, Initial residual = 0.48697, Final residual = 3.93231e-10, No Iterations 1
DILUPBiCGStab:  Solving for f1.air.bubbles, Initial residual = 0.487931, Final residual = 3.90014e-10, No Iterations 1
DILUPBiCGStab:  Solving for f2.air.bubbles, Initial residual = 0.487969, Final residual = 3.90142e-10, No Iterations 1
DILUPBiCGStab:  Solving for f3.air.bubbles, Initial residual = 0.488596, Final residual = 3.90603e-10, No Iterations 1
DILUPBiCGStab:  Solving for f4.air.bubbles, Initial residual = 0.489208, Final residual = 3.88561e-10, No Iterations 1
DILUPBiCGStab:  Solving for f5.air.bubbles, Initial residual = 0.489724, Final residual = 3.88854e-10, No Iterations 1
DILUPBiCGStab:  Solving for f6.air.bubbles, Initial residual = 0.49072, Final residual = 3.88199e-10, No Iterations 1
DILUPBiCGStab:  Solving for f7.air.bubbles, Initial residual = 0.491498, Final residual = 3.87772e-10, No Iterations 1
DILUPBiCGStab:  Solving for f8.air.bubbles, Initial residual = 0.492428, Final residual = 3.87104e-10, No Iterations 1
DILUPBiCGStab:  Solving for f9.air.bubbles, Initial residual = 0.493467, Final residual = 3.86514e-10, No Iterations 1
DILUPBiCGStab:  Solving for f10.air.bubbles, Initial residual = 0.494632, Final residual = 3.86182e-10, No Iterations 1
DILUPBiCGStab:  Solving for f11.air.bubbles, Initial residual = 0.495949, Final residual = 3.86401e-10, No Iterations 1
DILUPBiCGStab:  Solving for f12.air.bubbles, Initial residual = 0.4975, Final residual = 3.88804e-10, No Iterations 1
DILUPBiCGStab:  Solving for f13.air.bubbles, Initial residual = 0.499415, Final residual = 3.93705e-10, No Iterations 1
DILUPBiCGStab:  Solving for f14.air.bubbles, Initial residual = 0.501041, Final residual = 4.10787e-10, No Iterations 1
DILUPBiCGStab:  Solving for f15.air.bubbles, Initial residual = 0.502091, Final residual = 4.25161e-10, No Iterations 1
DILUPBiCGStab:  Solving for f16.air.bubbles, Initial residual = 0.501084, Final residual = 4.24847e-10, No Iterations 1
DILUPBiCGStab:  Solving for f17.air.bubbles, Initial residual = 0.500553, Final residual = 4.13183e-10, No Iterations 1
DILUPBiCGStab:  Solving for f18.air.bubbles, Initial residual = 0.499638, Final residual = 4.07015e-10, No Iterations 1
DILUPBiCGStab:  Solving for f19.air.bubbles, Initial residual = 0.498594, Final residual = 4.0427e-10, No Iterations 1
DILUPBiCGStab:  Solving for f20.air.bubbles, Initial residual = 0.497099, Final residual = 4.04048e-10, No Iterations 1
DILUPBiCGStab:  Solving for f21.air.bubbles, Initial residual = 0.493375, Final residual = 4.15593e-10, No Iterations 1
air Sauter mean diameter, min, max = 0.00110282 1.29865e-11 0.0029289
air sizeGroups-sum volume fraction, min, max = 102557 0.999608 8.89244e+07
bubbles sizeGroup phase fraction first, last = 717.545 1.71186e-05
Constructing momentum equations
smoothSolver:  Solving for e.air, Initial residual = 5.47458e-05, Final residual = 2.06174e-15, No Iterations 1
smoothSolver:  Solving for e.water, Initial residual = 5.7176e-05, Final residual = 4.92384e-15, No Iterations 1
GAMG:  Solving for p_rgh, Initial residual = 6.5544e-05, Final residual = 9.37534e-09, No Iterations 13
ExecutionTime = 44.47 s


fieldAverage fieldAverage1 write:
    Calculating averages

Courant Number mean: 0.104196 max: 0.503491
Max Ur Courant Number = 0.152223
deltaT = 0.00366876
Time = 2.792646

PIMPLE: Iteration 1
MULES: Solving for alpha.air
MULES: Solving for alpha.air
alpha.air volume fraction = 0.293323  Min(alpha1) = 2.67469e-05  Max(alpha1) = 1
Constructing momentum equations
smoothSolver:  Solving for e.air, Initial residual = 5.37199e-05, Final residual = 1.98378e-15, No Iterations 1
smoothSolver:  Solving for e.water, Initial residual = 5.61786e-05, Final residual = 5.88156e-15, No Iterations 1
GAMG:  Solving for p_rgh, Initial residual = 1.86691e-05, Final residual = 7.11185e-09, No Iterations 10
PIMPLE: Iteration 2
MULES: Solving for alpha.air
MULES: Solving for alpha.air
alpha.air volume fraction = 0.293322  Min(alpha1) = 2.70167e-05  Max(alpha1) = 1
Constructing momentum equations
smoothSolver:  Solving for e.air, Initial residual = 0.000110831, Final residual = 2.2029e-15, No Iterations 1
smoothSolver:  Solving for e.water, Initial residual = 0.000115522, Final residual = 4.14853e-15, No Iterations 1
GAMG:  Solving for p_rgh, Initial residual = 8.06029e-06, Final residual = 6.68742e-09, No Iterations 5
PIMPLE: Iteration 3
MULES: Solving for alpha.air
MULES: Solving for alpha.air
alpha.air volume fraction = 0.293323  Min(alpha1) = 2.71849e-05  Max(alpha1) = 1
populationBalance bubbles: Iteration 1
DILUPBiCGStab:  Solving for f0.air.bubbles, Initial residual = 0.342162, Final residual = 4.0553e-11, No Iterations 1
DILUPBiCGStab:  Solving for f1.air.bubbles, Initial residual = 0.342111, Final residual = 3.89067e-11, No Iterations 1
DILUPBiCGStab:  Solving for f2.air.bubbles, Initial residual = 0.34208, Final residual = 3.92476e-11, No Iterations 1
DILUPBiCGStab:  Solving for f3.air.bubbles, Initial residual = 0.342104, Final residual = 3.93172e-11, No Iterations 1
DILUPBiCGStab:  Solving for f4.air.bubbles, Initial residual = 0.342129, Final residual = 3.88914e-11, No Iterations 1
DILUPBiCGStab:  Solving for f5.air.bubbles, Initial residual = 0.342123, Final residual = 3.91265e-11, No Iterations 1
DILUPBiCGStab:  Solving for f6.air.bubbles, Initial residual = 0.342179, Final residual = 3.88468e-11, No Iterations 1
DILUPBiCGStab:  Solving for f7.air.bubbles, Initial residual = 0.342202, Final residual = 3.88514e-11, No Iterations 1
DILUPBiCGStab:  Solving for f8.air.bubbles, Initial residual = 0.342229, Final residual = 3.88113e-11, No Iterations 1
DILUPBiCGStab:  Solving for f9.air.bubbles, Initial residual = 0.342261, Final residual = 3.88371e-11, No Iterations 1
DILUPBiCGStab:  Solving for f10.air.bubbles, Initial residual = 0.3423, Final residual = 3.90114e-11, No Iterations 1
DILUPBiCGStab:  Solving for f11.air.bubbles, Initial residual = 0.342346, Final residual = 3.94712e-11, No Iterations 1
DILUPBiCGStab:  Solving for f12.air.bubbles, Initial residual = 0.342407, Final residual = 4.07178e-11, No Iterations 1
DILUPBiCGStab:  Solving for f13.air.bubbles, Initial residual = 0.342501, Final residual = 4.30045e-11, No Iterations 1
DILUPBiCGStab:  Solving for f14.air.bubbles, Initial residual = 0.34254, Final residual = 4.93148e-11, No Iterations 1
DILUPBiCGStab:  Solving for f15.air.bubbles, Initial residual = 0.342576, Final residual = 5.37118e-11, No Iterations 1
DILUPBiCGStab:  Solving for f16.air.bubbles, Initial residual = 0.342427, Final residual = 5.25973e-11, No Iterations 1
DILUPBiCGStab:  Solving for f17.air.bubbles, Initial residual = 0.34234, Final residual = 4.9016e-11, No Iterations 1
DILUPBiCGStab:  Solving for f18.air.bubbles, Initial residual = 0.342204, Final residual = 4.77107e-11, No Iterations 1
DILUPBiCGStab:  Solving for f19.air.bubbles, Initial residual = 0.342031, Final residual = 4.78299e-11, No Iterations 1
DILUPBiCGStab:  Solving for f20.air.bubbles, Initial residual = 0.34179, Final residual = 4.92684e-11, No Iterations 1
DILUPBiCGStab:  Solving for f21.air.bubbles, Initial residual = 0.341341, Final residual = 5.60611e-11, No Iterations 1
air Sauter mean diameter, min, max = 0.00109783 -4.40576e-07 0.0029289
air sizeGroups-sum volume fraction, min, max = 203954 -2630.49 1.77849e+08
bubbles sizeGroup phase fraction first, last = 1400.34 3.31468e-05
Constructing momentum equations
#0  Foam::error::printStack(Foam::Ostream&) at ??:?
#1  Foam::sigFpe::sigHandler(int) at ??:?
#2  ? in "/lib/x86_64-linux-gnu/libc.so.6"
#3  ? in "/lib/x86_64-linux-gnu/libm.so.6"
#4  pow in "/lib/x86_64-linux-gnu/libm.so.6"
#5  Foam::pow(Foam::Field<double>&, Foam::UList<double> const&, double const&) at ??:?
#6  Foam::tmp<Foam::GeometricField<double, Foam::fvPatchField, Foam::volMesh> > Foam::pow<Foam::fvPatchField, Foam::volMesh>(Foam::GeometricField<double, Foam::fvPatchField, Foam::volMesh> const&, Foam::dimensioned<double> const&) at ??:?
#7  Foam::dragModels::SchillerNaumann::CdRe() const at ??:?
#8  Foam::dragModel::Ki() const at ??:?
#9  Foam::dragModel::K() const at ??:?
#10  Foam::tmp<Foam::GeometricField<double, Foam::fvPatchField, Foam::volMesh> > Foam::BlendedInterfacialModel<Foam::dragModel>::evaluate<double, Foam::fvPatchField, Foam::volMesh>(Foam::tmp<Foam::GeometricField<double, Foam::fvPatchField, Foam::volMesh> > (Foam::dragModel::*)() const, Foam::word const&, Foam::dimensionSet const&, bool) const at ??:?
#11  Foam::BlendedInterfacialModel<Foam::dragModel>::K() const at ??:?
#12  Foam::MomentumTransferPhaseSystem<Foam::twoPhaseSystem>::momentumTransfer() at ??:?
#13  ? in "/opt/openfoam6/platforms/linux64GccDPInt32Opt/bin/reactingTwoPhaseEulerFoam"
#14  __libc_start_main in "/lib/x86_64-linux-gnu/libc.so.6"
#15  ? in "/opt/openfoam6/platforms/linux64GccDPInt32Opt/bin/reactingTwoPhaseEulerFoam"
Floating point exception (core dumped)
